data_C544H352N128O32_2018-02-15_13:17:18
#******************************************
#
# CIF file created by Zeo++
# Zeo++ is an open source package to
# analyze microporous materials
#
#*******************************************

_cell_length_a		41.8247   
_cell_length_b		54.3219   
_cell_length_c		32.1189   
_cell_angle_alpha		90   
_cell_angle_beta		90   
_cell_angle_gamma		90   

_symmetry_space_group_name_H-M		'P1'
_symmetry_Int_Tables_number		1
_symmetry_cell_setting		Orthorhombic

loop_
_symmetry_equiv_pos_as_xyz
'+x,+y,+z'

loop_
_atom_site_label
_atom_site_type_symbol
_atom_site_fract_x
_atom_site_fract_y
_atom_site_fract_z
1	C	0.216679	0.371798	0.045536
2	C	0.231595	0.349008	0.035501
3	C	0.257154	0.339008	0.059067
4	C	0.26985	0.353038	0.092265
5	C	0.255634	0.375699	0.103294
6	C	0.229329	0.384559	0.080363
7	H	0.224774	0.339719	0.009365
8	O	0.295816	0.344809	0.113807
9	C	0.190774	0.382056	0.02094
10	C	0.170433	0.366809	0.996765
11	C	0.146216	0.376419	0.970967
12	C	0.141243	0.402136	0.96937
13	C	0.160064	0.418093	0.994082
14	C	0.184994	0.407841	0.018419
15	O	0.118516	0.411528	0.943407
16	H	0.200115	0.419749	0.033048
17	H	0.314704	0.350786	0.098632
18	H	0.12921	0.414593	0.916635
19	H	0.219619	0.400983	0.089401
20	H	0.173241	0.348115	0.997291
21	N	0.154998	0.442302	0.99037
22	N	0.133396	0.361197	0.943348
23	N	0.269786	0.391514	0.12864
24	N	0.271598	0.317805	0.049333
25	C	0.866063	0.630508	0.545501
26	C	0.851162	0.653303	0.535448
27	C	0.825611	0.663323	0.559001
28	C	0.812893	0.649307	0.5922
29	C	0.827086	0.62664	0.603246
30	C	0.853391	0.617763	0.580338
31	H	0.857991	0.662581	0.509308
32	O	0.786928	0.657552	0.613726
33	C	0.891964	0.62023	0.520921
34	C	0.912289	0.635458	0.496683
35	C	0.936507	0.625828	0.470907
36	C	0.941506	0.600113	0.4694
37	C	0.922699	0.584175	0.494167
38	C	0.897767	0.594445	0.518477
39	O	0.964244	0.590704	0.443474
40	H	0.882668	0.582549	0.533163
41	H	0.768039	0.651589	0.598536
42	H	0.953552	0.587589	0.416717
43	H	0.863084	0.601339	0.589398
44	H	0.909475	0.65415	0.49715
45	N	0.927828	0.559967	0.490574
46	N	0.949313	0.641025	0.443234
47	N	0.812903	0.610834	0.628583
48	N	0.811191	0.684532	0.54925
49	C	0.863284	0.370487	0.44835
50	C	0.855433	0.345479	0.456314
51	C	0.82799	0.334176	0.43877
52	C	0.808142	0.348099	0.411966
53	C	0.815832	0.372809	0.40276
54	C	0.842529	0.383793	0.421845
55	H	0.869649	0.335373	0.475708
56	O	0.781259	0.337911	0.395204
57	C	0.889886	0.382799	0.467803
58	C	0.898964	0.377439	0.509273
59	C	0.925219	0.389145	0.528462
60	C	0.941681	0.40813	0.50715
61	C	0.932717	0.414326	0.466028
62	C	0.907861	0.401048	0.4465
63	O	0.967312	0.419422	0.52499
64	H	0.90316	0.40459	0.415786
65	H	0.763798	0.341389	0.414852
66	H	0.958563	0.432275	0.543285
67	H	0.846383	0.402117	0.416913
68	H	0.886488	0.364552	0.525937
69	N	0.950917	0.428586	0.44236
70	N	0.932715	0.381741	0.566567
71	N	0.796884	0.387271	0.380642
72	N	0.817477	0.311876	0.449246
73	C	0.219639	0.631894	0.948168
74	C	0.227464	0.656904	0.956169
75	C	0.254905	0.668229	0.938659
76	C	0.274783	0.654327	0.911862
77	C	0.26712	0.629618	0.902621
78	C	0.24042	0.618612	0.921663
79	H	0.213229	0.666996	0.97556
80	O	0.301666	0.664536	0.89513
81	C	0.193042	0.619554	0.967586
82	C	0.183931	0.624897	0.009054
83	C	0.157689	0.613157	0.028211
84	C	0.141278	0.594156	0.006881
85	C	0.150274	0.587974	0.965762
86	C	0.175112	0.601289	0.946262
87	O	0.115658	0.582833	0.024696
88	H	0.179834	0.597755	0.915551
89	H	0.319115	0.661075	0.914804
90	H	0.124421	0.569991	0.042998
91	H	0.236586	0.60029	0.916697
92	H	0.196375	0.637792	0.025735
93	N	0.132123	0.573694	0.942062
94	N	0.150169	0.620539	0.066321
95	N	0.286101	0.615177	0.880513
96	N	0.265389	0.690533	0.949155
97	C	0.88311	0.64746	0.941922
98	C	0.871521	0.668934	0.96192
99	C	0.849286	0.684723	0.942025
100	C	0.838928	0.678982	0.901202
101	C	0.85143	0.658251	0.880027
102	C	0.872635	0.642379	0.900981
103	H	0.878266	0.672502	0.991933
104	O	0.816841	0.693563	0.882007
105	C	0.904487	0.630876	0.962194
106	C	0.93418	0.639243	0.978016
107	C	0.955924	0.622677	0.996681
108	C	0.947474	0.59763	0.000779
109	C	0.918379	0.588775	0.984318
110	C	0.89708	0.605444	0.965117
111	O	0.968407	0.581516	0.018889
112	H	0.87571	0.599042	0.953993
113	H	0.795877	0.686073	0.887671
114	H	0.96361	0.581699	0.048867
115	H	0.881006	0.627071	0.885815
116	H	0.940335	0.657401	0.975199
117	N	0.912815	0.564974	0.989365
118	N	0.984395	0.628772	0.011315
119	N	0.841976	0.651645	0.842246
120	N	0.835545	0.704018	0.960326
121	C	0.199685	0.354792	0.441958
122	C	0.211275	0.333315	0.461946
123	C	0.2335	0.317524	0.442036
124	C	0.243846	0.323265	0.401209
125	C	0.231343	0.343997	0.380044
126	C	0.210149	0.359871	0.40101
127	H	0.20454	0.329747	0.491963
128	O	0.265929	0.308684	0.382003
129	C	0.178318	0.37138	0.462242
130	C	0.148629	0.363017	0.47808
131	C	0.126884	0.379591	0.496729
132	C	0.13533	0.404641	0.500789
133	C	0.164425	0.41349	0.484319
134	C	0.185723	0.396814	0.465137
135	O	0.114392	0.420762	0.518872
136	H	0.207089	0.403215	0.453991
137	H	0.286895	0.316172	0.38766
138	H	0.119188	0.420596	0.548851
139	H	0.201778	0.375184	0.385851
140	H	0.142473	0.344861	0.475272
141	N	0.169975	0.437297	0.489313
142	N	0.098407	0.373505	0.511347
143	N	0.240791	0.350613	0.342263
144	N	0.247246	0.298231	0.460333
145	C	0.215683	0.640629	0.567523
146	C	0.227332	0.660591	0.543443
147	C	0.248301	0.678394	0.560742
148	C	0.257896	0.676104	0.602838
149	C	0.245377	0.657033	0.627911
150	C	0.224712	0.639602	0.609996
151	H	0.221493	0.661646	0.51258
152	O	0.279211	0.692341	0.619542
153	C	0.195371	0.621789	0.550679
154	C	0.16803	0.627687	0.526693
155	C	0.14476	0.609632	0.516855
156	C	0.149292	0.585029	0.53014
157	C	0.17653	0.578659	0.553767
158	C	0.199286	0.596941	0.563167
159	O	0.125358	0.568216	0.525535
160	H	0.218044	0.592267	0.582122
161	H	0.300531	0.68515	0.615164
162	H	0.127372	0.56178	0.497041
163	H	0.216017	0.625854	0.628689
164	H	0.163686	0.645651	0.518925
165	N	0.176242	0.559487	0.57913
166	N	0.116831	0.615208	0.499404
167	N	0.255132	0.652497	0.666359
168	N	0.2613	0.696831	0.539415
169	C	0.867029	0.36162	0.067666
170	C	0.855416	0.341634	0.043612
171	C	0.834459	0.323827	0.060919
172	C	0.824836	0.326137	0.103002
173	C	0.837312	0.345234	0.128048
174	C	0.857969	0.362669	0.110125
175	H	0.861283	0.34056	0.012758
176	O	0.803537	0.309893	0.119722
177	C	0.887337	0.380459	0.050808
178	C	0.914685	0.374565	0.026837
179	C	0.937944	0.392624	0.016981
180	C	0.933396	0.417229	0.030243
181	C	0.906154	0.423599	0.05386
182	C	0.883404	0.405311	0.063267
183	O	0.957322	0.434049	0.025625
184	H	0.864638	0.409987	0.082207
185	H	0.782208	0.317056	0.115296
186	H	0.955292	0.440487	0.997136
187	H	0.866637	0.376434	0.128805
188	H	0.919041	0.356598	0.019086
189	N	0.906422	0.442777	0.079208
190	N	0.965875	0.38705	0.99953
191	N	0.827519	0.349787	0.166474
192	N	0.821505	0.305357	0.039625
193	C	0.715465	0.871869	0.04587
194	C	0.73059	0.849259	0.035275
195	C	0.755939	0.839018	0.058943
196	C	0.767831	0.85246	0.093342
197	C	0.753835	0.875212	0.104331
198	C	0.727781	0.884317	0.081197
199	H	0.724108	0.840393	0.008586
200	O	0.794244	0.844489	0.114214
201	C	0.689751	0.882292	0.021199
202	C	0.66937	0.867154	0.996899
203	C	0.645241	0.876907	0.971117
204	C	0.640462	0.902648	0.969619
205	C	0.659383	0.918496	0.994415
206	C	0.684173	0.908101	0.018825
207	O	0.617819	0.912167	0.943663
208	H	0.699333	0.919892	0.033659
209	H	0.786545	0.832695	0.135167
210	H	0.628557	0.915227	0.916921
211	H	0.718059	0.900715	0.09037
212	H	0.672086	0.848447	0.997357
213	N	0.654458	0.942728	0.990791
214	N	0.632301	0.861773	0.943457
215	N	0.767865	0.890852	0.130096
216	N	0.770748	0.818017	0.048754
217	C	0.367446	0.130439	0.545931
218	C	0.352309	0.153042	0.535333
219	C	0.326953	0.163274	0.558998
220	C	0.315075	0.149831	0.593408
221	C	0.329088	0.127086	0.604401
222	C	0.355142	0.117986	0.581259
223	H	0.358788	0.161908	0.508641
224	O	0.28866	0.157794	0.614283
225	C	0.39316	0.120023	0.521257
226	C	0.413562	0.135171	0.49701
227	C	0.437684	0.125427	0.471212
228	C	0.442433	0.099682	0.469639
229	C	0.423489	0.083825	0.494391
230	C	0.398707	0.094213	0.518822
231	O	0.465058	0.09017	0.443652
232	H	0.38352	0.082419	0.533605
233	H	0.296354	0.169595	0.635227
234	H	0.454315	0.087154	0.416898
235	H	0.364873	0.10159	0.590422
236	H	0.410858	0.153879	0.497511
237	N	0.428343	0.059592	0.490658
238	N	0.450638	0.140575	0.443586
239	N	0.315077	0.111443	0.63018
240	N	0.312122	0.184264	0.548802
241	C	0.36269	0.869954	0.448188
242	C	0.35523	0.844839	0.455782
243	C	0.327914	0.833374	0.438169
244	C	0.30784	0.847278	0.411618
245	C	0.315101	0.872126	0.402872
246	C	0.341669	0.883243	0.422038
247	H	0.369758	0.834757	0.474811
248	O	0.281214	0.836896	0.394509
249	C	0.389273	0.88233	0.467535
250	C	0.398473	0.87697	0.508956
251	C	0.424723	0.888738	0.528047
252	C	0.441082	0.907745	0.506655
253	C	0.432015	0.913912	0.465555
254	C	0.407121	0.900612	0.446152
255	O	0.466715	0.919093	0.524392
256	H	0.402305	0.90415	0.415463
257	H	0.263607	0.840114	0.414062
258	H	0.457964	0.931925	0.542727
259	H	0.345298	0.901617	0.417331
260	H	0.386078	0.864043	0.525641
261	N	0.450148	0.928155	0.441771
262	N	0.432271	0.881384	0.566162
263	N	0.296002	0.886524	0.38086
264	N	0.31802	0.810737	0.447755
265	C	0.720046	0.132286	0.948317
266	C	0.727513	0.1574	0.955892
267	C	0.754832	0.168858	0.938264
268	C	0.774896	0.154944	0.911716
269	C	0.767626	0.130095	0.902986
270	C	0.74106	0.118985	0.922171
271	H	0.712993	0.167488	0.974921
272	O	0.801522	0.165318	0.894595
273	C	0.693466	0.119921	0.96768
274	C	0.684292	0.12528	0.009111
275	C	0.658037	0.113526	0.028214
276	C	0.641643	0.094537	0.006821
277	C	0.650683	0.088373	0.965709
278	C	0.675587	0.101656	0.946293
279	O	0.616002	0.083206	0.024569
280	H	0.680385	0.098123	0.915601
281	H	0.819131	0.162097	0.914141
282	H	0.624744	0.070359	0.04288
283	H	0.737426	0.100609	0.917485
284	H	0.696708	0.138196	0.02579
285	N	0.632509	0.074157	0.941932
286	N	0.650513	0.120878	0.06634
287	N	0.786715	0.115686	0.88098
288	N	0.76473	0.191495	0.947838
289	C	0.383159	0.148191	0.943547
290	C	0.371869	0.169728	0.96361
291	C	0.350463	0.186056	0.943407
292	C	0.341198	0.181068	0.901852
293	C	0.353002	0.160006	0.880902
294	C	0.373076	0.143487	0.902319
295	H	0.378784	0.173285	0.993568
296	O	0.320287	0.196403	0.882119
297	C	0.404278	0.131402	0.963778
298	C	0.434055	0.139555	0.979654
299	C	0.455676	0.122819	0.998123
300	C	0.447009	0.097801	0.001959
301	C	0.417842	0.089153	0.985379
302	C	0.396675	0.105998	0.966369
303	O	0.467822	0.081517	0.019859
304	H	0.375269	0.099748	0.955108
305	H	0.298859	0.189441	0.886656
306	H	0.463054	0.081614	0.049846
307	H	0.38116	0.128079	0.887169
308	H	0.440367	0.157688	0.976995
309	N	0.412104	0.065351	0.990099
310	N	0.484221	0.128746	0.012737
311	N	0.343804	0.153605	0.842909
312	N	0.337879	0.205965	0.961356
313	C	0.699735	0.85418	0.443499
314	C	0.711016	0.832641	0.463562
315	C	0.732436	0.81632	0.443368
316	C	0.74172	0.821316	0.401826
317	C	0.729921	0.84238	0.380872
318	C	0.709834	0.858894	0.402283
319	H	0.704082	0.829076	0.49351
320	O	0.762636	0.805984	0.382096
321	C	0.678592	0.870956	0.463715
322	C	0.64877	0.862804	0.479441
323	C	0.62713	0.87953	0.497894
324	C	0.635826	0.904535	0.50187
325	C	0.665043	0.913183	0.48544
326	C	0.686229	0.896349	0.466429
327	O	0.615	0.92081	0.519769
328	H	0.707668	0.902597	0.455283
329	H	0.784063	0.812948	0.386645
330	H	0.619703	0.920659	0.549773
331	H	0.701755	0.874304	0.387137
332	H	0.642439	0.844679	0.476679
333	N	0.670822	0.936964	0.490325
334	N	0.598539	0.873612	0.512365
335	N	0.739119	0.848777	0.342879
336	N	0.745007	0.796407	0.461314
337	C	0.717096	0.140754	0.567607
338	C	0.728319	0.16093	0.543696
339	C	0.748895	0.178972	0.561118
340	C	0.758406	0.176749	0.603259
341	C	0.746392	0.157396	0.628132
342	C	0.726184	0.139712	0.610052
343	H	0.722301	0.162045	0.512904
344	O	0.779124	0.193349	0.620217
345	C	0.696983	0.121796	0.550713
346	C	0.669483	0.127537	0.52693
347	C	0.646386	0.109339	0.517157
348	C	0.65124	0.08475	0.530336
349	C	0.67864	0.078534	0.553761
350	C	0.701234	0.096956	0.563052
351	O	0.627472	0.067792	0.525831
352	H	0.720123	0.092387	0.581863
353	H	0.800666	0.186464	0.616301
354	H	0.629365	0.061468	0.497252
355	H	0.71777	0.125817	0.628652
356	H	0.664897	0.145482	0.519264
357	N	0.678716	0.059348	0.579098
358	N	0.618379	0.114766	0.499777
359	N	0.756144	0.152921	0.666598
360	N	0.761072	0.197916	0.540184
361	C	0.365868	0.861602	0.067482
362	C	0.354621	0.841435	0.043566
363	C	0.334056	0.823389	0.060999
364	C	0.324588	0.825596	0.10316
365	C	0.336627	0.84494	0.128034
366	C	0.356818	0.862631	0.109941
367	H	0.360617	0.840331	0.012766
368	O	0.303883	0.808992	0.120127
369	C	0.385968	0.880563	0.050578
370	C	0.413469	0.874821	0.026793
371	C	0.436563	0.893022	0.017017
372	C	0.431704	0.917611	0.030188
373	C	0.404307	0.923826	0.053621
374	C	0.381717	0.905402	0.062924
375	O	0.45547	0.934571	0.025677
376	H	0.362836	0.909967	0.081747
377	H	0.282338	0.815884	0.116259
378	H	0.453581	0.940885	0.997092
379	H	0.365246	0.876522	0.128539
380	H	0.418059	0.856877	0.019132
381	N	0.404237	0.943019	0.078946
382	N	0.464577	0.887597	0.999661
383	N	0.326915	0.849403	0.166523
384	N	0.32186	0.80445	0.040067
385	C	0.155569	0.484675	0.997606
386	C	0.178386	0.500142	0.978175
387	C	0.168997	0.523085	0.96045
388	C	0.136867	0.531218	0.963358
389	C	0.114485	0.515799	0.983661
390	C	0.123648	0.49295	0.00057
391	N	0.191487	0.536069	0.939036
392	C	0.222419	0.528797	0.934693
393	C	0.231715	0.506525	0.953591
394	N	0.209416	0.493001	0.973891
395	H	0.254555	0.500013	0.951088
396	H	0.106487	0.48201	0.013816
397	H	0.090795	0.52057	0.984723
398	C	0.245071	0.543534	0.909941
399	H	0.232874	0.5588	0.894676
400	H	0.255968	0.532102	0.885868
401	H	0.263806	0.550853	0.930088
402	C	0.163671	0.46134	0.011385
403	H	0.177561	0.459752	0.036307
404	C	0.125234	0.550678	0.939687
405	H	0.109833	0.546354	0.917329
406	C	0.927194	0.517596	0.497707
407	C	0.904461	0.502127	0.478108
408	C	0.913927	0.479184	0.460449
409	C	0.946049	0.471064	0.463562
410	C	0.968344	0.486481	0.484024
411	C	0.959104	0.509321	0.500898
412	N	0.891533	0.466211	0.438848
413	C	0.860619	0.473479	0.43429
414	C	0.851229	0.495732	0.453182
415	N	0.873448	0.509264	0.473612
416	H	0.828418	0.502268	0.450439
417	H	0.976206	0.520267	0.514258
418	H	0.992031	0.481715	0.485241
419	C	0.838086	0.458761	0.40932
420	H	0.85035	0.443498	0.394136
421	H	0.827311	0.470211	0.385175
422	H	0.819246	0.451436	0.429299
423	C	0.919024	0.540921	0.511475
424	H	0.904829	0.542481	0.536102
425	C	0.957777	0.451608	0.439965
426	H	0.973234	0.455934	0.417676
427	C	0.89709	0.524469	0.992796
428	C	0.869563	0.510985	0.004834
429	C	0.872583	0.489476	0.029879
430	C	0.903055	0.481111	0.042781
431	C	0.930427	0.493916	0.029033
432	C	0.927495	0.514936	0.003819
433	N	0.845338	0.478063	0.042751
434	C	0.81543	0.485737	0.032615
435	C	0.812573	0.507031	0.007853
436	N	0.83949	0.518822	0.995361
437	H	0.79071	0.513851	0.999583
438	H	0.947924	0.524376	0.996429
439	H	0.952684	0.489125	0.039639
440	C	0.78721	0.47215	0.047707
441	H	0.794275	0.456256	0.066381
442	H	0.772422	0.484202	0.066898
443	H	0.773122	0.465652	0.021303
444	C	0.894613	0.547865	0.975342
445	H	0.87802	0.551593	0.954133
446	C	0.905953	0.466325	0.077526
447	H	0.906383	0.474858	0.104849
448	C	0.185727	0.477794	0.492754
449	C	0.213243	0.491266	0.504874
450	C	0.21019	0.512773	0.529912
451	C	0.1797	0.521158	0.542705
452	C	0.15234	0.508388	0.528823
453	C	0.155306	0.487344	0.503669
454	N	0.237421	0.524169	0.542883
455	C	0.267342	0.516478	0.532851
456	C	0.27023	0.495188	0.508087
457	N	0.243325	0.483411	0.495506
458	H	0.292103	0.48835	0.499905
459	H	0.134886	0.47791	0.496222
460	H	0.130069	0.51315	0.539418
461	C	0.295543	0.530045	0.548051
462	H	0.288456	0.545941	0.566707
463	H	0.310279	0.517982	0.567289
464	H	0.309693	0.536542	0.521699
465	C	0.188201	0.454396	0.475303
466	H	0.204873	0.450636	0.454219
467	C	0.176746	0.535938	0.577448
468	H	0.176266	0.527406	0.604769
469	C	0.655615	0.985118	0.997522
470	C	0.678477	0.000553	0.9781
471	C	0.669148	0.023502	0.960351
472	C	0.637021	0.031665	0.963174
473	C	0.614606	0.016286	0.983487
474	C	0.623711	0.99344	0.000452
475	N	0.691678	0.03645	0.938949
476	C	0.722595	0.029145	0.934634
477	C	0.731831	0.006859	0.953538
478	N	0.709495	0.99337	0.973832
479	H	0.75466	0.000319	0.951054
480	H	0.606517	0.982526	0.013687
481	H	0.590926	0.021089	0.984511
482	C	0.745285	0.043861	0.909904
483	H	0.733144	0.059186	0.894729
484	H	0.756111	0.032434	0.885768
485	H	0.764073	0.051101	0.930051
486	C	0.66367	0.961783	0.011364
487	H	0.678174	0.96021	0.035684
488	C	0.625513	0.051161	0.9395
489	H	0.610125	0.046887	0.917102
490	C	0.427233	0.017201	0.497505
491	C	0.404297	0.001769	0.478226
492	C	0.413552	0.978813	0.460439
493	C	0.445675	0.970634	0.46312
494	C	0.46818	0.986014	0.483264
495	C	0.459148	0.008875	0.500241
496	N	0.390946	0.965862	0.439181
497	C	0.360017	0.973178	0.435037
498	C	0.350857	0.995472	0.453976
499	N	0.37327	0.008961	0.474132
500	H	0.328026	0.002019	0.451619
501	H	0.476391	0.019785	0.513374
502	H	0.491863	0.981206	0.484157
503	C	0.337234	0.958462	0.410459
504	H	0.349318	0.943136	0.39521
505	H	0.326317	0.969886	0.386389
506	H	0.318522	0.951223	0.430731
507	C	0.41924	0.040548	0.511344
508	H	0.405029	0.042149	0.535952
509	C	0.457146	0.951152	0.439371
510	H	0.472491	0.955439	0.416929
511	C	0.395867	0.02496	0.99302
512	C	0.368122	0.01169	0.004891
513	C	0.370781	0.990101	0.029795
514	C	0.401103	0.981438	0.042732
515	C	0.428689	0.994029	0.029147
516	C	0.426114	0.015142	0.004086
517	N	0.34334	0.978905	0.042522
518	C	0.313568	0.98687	0.032354
519	C	0.311072	0.008236	0.007708
520	N	0.338188	0.019816	0.995374
521	H	0.289327	0.015275	0.999434
522	H	0.446679	0.024451	0.996874
523	H	0.450846	0.989081	0.039897
524	C	0.285116	0.973513	0.047298
525	H	0.291909	0.957517	0.065899
526	H	0.270489	0.985661	0.06652
527	H	0.270972	0.967193	0.020821
528	C	0.393782	0.048419	0.975728
529	H	0.377182	0.052379	0.954653
530	C	0.403695	0.966569	0.077415
531	H	0.403809	0.975033	0.104805
532	C	0.686982	0.97738	0.493302
533	C	0.714714	0.990701	0.505067
534	C	0.712044	0.01229	0.529975
535	C	0.681696	0.020891	0.542958
536	C	0.654111	0.008305	0.529392
537	C	0.656727	0.987144	0.504454
538	N	0.73948	0.023532	0.542612
539	C	0.769254	0.015608	0.532363
540	C	0.771762	0.994237	0.507732
541	N	0.744654	0.982616	0.495478
542	H	0.793508	0.987233	0.499388
543	H	0.636172	0.977837	0.49719
544	H	0.631971	0.013234	0.540212
545	C	0.797696	0.029016	0.547204
546	H	0.790894	0.045007	0.56581
547	H	0.812391	0.016898	0.566396
548	H	0.811777	0.035346	0.520681
549	C	0.689127	0.953926	0.47601
550	H	0.705564	0.950041	0.454679
551	C	0.679211	0.035795	0.577616
552	H	0.679113	0.027349	0.605021
553	C	0.280253	0.27758	0.024838
554	C	0.311766	0.278913	0.008545
555	C	0.329475	0.257045	0.000184
556	C	0.316	0.233576	0.008054
557	C	0.284779	0.232411	0.024686
558	C	0.26718	0.253989	0.032578
559	N	0.359529	0.259438	0.984417
560	C	0.373624	0.281417	0.976045
561	C	0.355924	0.302964	0.984062
562	N	0.325963	0.300869	0.999773
563	H	0.365201	0.320025	0.978287
564	H	0.244435	0.252228	0.044054
565	H	0.274214	0.215738	0.030462
566	C	0.406339	0.28233	0.959046
567	H	0.416061	0.263834	0.954908
568	H	0.421897	0.292445	0.980295
569	H	0.406193	0.291573	0.928877
570	C	0.261104	0.29818	0.031478
571	H	0.23811	0.297134	0.023709
572	C	0.33201	0.211841	0.999353
573	H	0.335845	0.199879	0.022233
574	C	0.802581	0.724762	0.52475
575	C	0.77104	0.723453	0.508554
576	C	0.753352	0.745336	0.500216
577	C	0.766882	0.768794	0.508009
578	C	0.798132	0.769937	0.524551
579	C	0.815707	0.748344	0.532425
580	N	0.723264	0.742967	0.484547
581	C	0.709115	0.720998	0.476249
582	C	0.726793	0.699437	0.484248
583	N	0.756785	0.701508	0.499862
584	H	0.717473	0.682384	0.478525
585	H	0.838474	0.750089	0.543833
586	H	0.808735	0.786601	0.53027
587	C	0.676366	0.720112	0.459356
588	H	0.666671	0.738615	0.455221
589	H	0.660832	0.710024	0.480667
590	H	0.676443	0.710853	0.429202
591	C	0.821704	0.704143	0.531369
592	H	0.844702	0.705177	0.523623
593	C	0.750899	0.790541	0.49931
594	H	0.747095	0.802514	0.522185
595	C	0.80907	0.272888	0.477641
596	C	0.775707	0.274042	0.485867
597	C	0.757933	0.252215	0.494064
598	C	0.773254	0.228983	0.494432
599	C	0.80645	0.227947	0.486539
600	C	0.824016	0.249522	0.478357
601	N	0.726162	0.254488	0.502567
602	C	0.710332	0.276316	0.503567
603	C	0.728008	0.297859	0.495528
604	N	0.759666	0.295855	0.487237
605	H	0.717512	0.314841	0.496023
606	H	0.84809	0.247961	0.473108
607	H	0.818256	0.211428	0.487081
608	C	0.675888	0.277115	0.513187
609	H	0.666453	0.258649	0.51862
610	H	0.662881	0.285325	0.487212
611	H	0.671864	0.288143	0.541105
612	C	0.827743	0.293789	0.471302
613	H	0.849054	0.294815	0.484861
614	C	0.756651	0.207747	0.504317
615	H	0.739872	0.201578	0.485091
616	C	0.273757	0.729525	0.977534
617	C	0.307101	0.728374	0.985878
618	C	0.324866	0.750207	0.99405
619	C	0.309554	0.773441	0.994275
620	C	0.276373	0.774475	0.98627
621	C	0.258814	0.752893	0.978122
622	N	0.356622	0.747939	0.002663
623	C	0.372443	0.72611	0.003793
624	C	0.354776	0.704561	0.995772
625	N	0.323132	0.706558	0.987375
626	H	0.365265	0.687577	0.996367
627	H	0.23475	0.75445	0.972789
628	H	0.264569	0.790997	0.986721
629	C	0.40687	0.72532	0.013524
630	H	0.4163	0.743791	0.01892
631	H	0.419922	0.717075	0.987615
632	H	0.410836	0.714326	0.041491
633	C	0.255093	0.708618	0.971192
634	H	0.233769	0.707591	0.984716
635	C	0.326142	0.794688	0.004119
636	H	0.342783	0.80093	0.984766
637	C	0.821195	0.736934	0.002276
638	C	0.787571	0.734171	0.005596
639	C	0.767743	0.754796	0.014751
640	C	0.781113	0.778571	0.020868
641	C	0.814763	0.780939	0.018025
642	C	0.8344	0.760536	0.009152
643	N	0.735652	0.750778	0.017622
644	C	0.72143	0.728518	0.012308
645	C	0.741249	0.708264	0.003276
646	N	0.773225	0.711869	0.000358
647	H	0.732032	0.69103	0.998985
648	H	0.858572	0.76325	0.006825
649	H	0.825419	0.797766	0.021691
650	C	0.686463	0.725974	0.016104
651	H	0.675288	0.743646	0.023233
652	H	0.676522	0.719109	0.986914
653	H	0.68073	0.713056	0.041034
654	C	0.841319	0.717408	0.992438
655	H	0.860829	0.714538	0.009415
656	C	0.761636	0.799073	0.027739
657	H	0.739441	0.798723	0.016701
658	C	0.261606	0.265315	0.502281
659	C	0.295228	0.268098	0.505637
660	C	0.31507	0.247484	0.514803
661	C	0.301721	0.2237	0.52089
662	C	0.268076	0.221312	0.518016
663	C	0.248425	0.241703	0.509127
664	N	0.347156	0.251523	0.517708
665	C	0.361356	0.273792	0.512421
666	C	0.341521	0.294036	0.503383
667	N	0.309549	0.290411	0.500428
668	H	0.350724	0.311276	0.499111
669	H	0.224254	0.238975	0.506789
670	H	0.257434	0.204475	0.521668
671	C	0.396319	0.276358	0.516257
672	H	0.407508	0.258691	0.523387
673	H	0.40627	0.283235	0.487081
674	H	0.402023	0.289274	0.541202
675	C	0.24147	0.284831	0.492433
676	H	0.221949	0.287689	0.509395
677	C	0.321217	0.203211	0.527773
678	H	0.343412	0.20357	0.516736
679	C	0.274759	0.727625	0.493364
680	C	0.308624	0.726719	0.491929
681	C	0.326728	0.748305	0.483077
682	C	0.311316	0.771156	0.475496
683	C	0.277444	0.771629	0.476489
684	C	0.259521	0.750292	0.48501
685	N	0.359178	0.74615	0.482193
686	C	0.375257	0.724814	0.489198
687	C	0.357131	0.703598	0.498
688	N	0.324823	0.705374	0.498993
689	H	0.367821	0.687006	0.503551
690	H	0.235114	0.751691	0.486349
691	H	0.26531	0.787785	0.472012
692	C	0.410466	0.724208	0.487436
693	H	0.420178	0.742368	0.480191
694	H	0.420034	0.718295	0.517424
695	H	0.418232	0.711335	0.463388
696	C	0.256306	0.707403	0.504267
697	H	0.237965	0.70248	0.486458
698	C	0.328794	0.792788	0.46977
699	H	0.349683	0.794587	0.484148
700	C	0.808006	0.274587	0.993537
701	C	0.774146	0.275504	0.992089
702	C	0.756032	0.253925	0.983203
703	C	0.771439	0.231076	0.975594
704	C	0.805309	0.230597	0.976562
705	C	0.823236	0.251922	0.985162
706	N	0.723582	0.256092	0.982313
707	C	0.707513	0.277427	0.98934
708	C	0.725646	0.298636	0.998176
709	N	0.757952	0.296851	0.999178
710	H	0.714963	0.315226	0.003749
711	H	0.847648	0.250525	0.986438
712	H	0.817438	0.214442	0.972051
713	C	0.672306	0.278044	0.987568
714	H	0.662587	0.259889	0.980298
715	H	0.662733	0.283946	0.017561
716	H	0.664548	0.29093	0.963536
717	C	0.826467	0.2948	0.004459
718	H	0.844683	0.29982	0.986507
719	C	0.753947	0.209455	0.969819
720	H	0.733053	0.207658	0.98419
721	C	0.076371	0.361044	0.951175
722	C	0.0495	0.367109	0.926308
723	C	0.018832	0.370318	0.944712
724	C	0.01467	0.367393	0.988259
725	C	0.041738	0.361491	0.012719
726	C	0.072035	0.358303	0.994533
727	N	0.993834	0.375474	0.918964
728	C	0.996412	0.378035	0.877023
729	C	0.026897	0.375029	0.85912
730	N	0.051979	0.369643	0.884224
731	H	0.030372	0.376649	0.82775
732	H	0.090653	0.352999	0.013198
733	H	0.039563	0.358923	0.044198
734	C	0.968007	0.383624	0.851555
735	H	0.946654	0.385229	0.870923
736	H	0.964151	0.368954	0.828886
737	H	0.971515	0.40098	0.83506
738	C	0.105145	0.354325	0.932906
739	H	0.104191	0.342302	0.909661
740	C	0.985119	0.36923	0.007683
741	H	0.980046	0.357692	0.030867
742	C	0.006335	0.641207	0.451062
743	C	0.033194	0.635119	0.426182
744	C	0.063868	0.631916	0.444576
745	C	0.06805	0.634876	0.488108
746	C	0.040994	0.640798	0.51258
747	C	0.010686	0.643966	0.494413
748	N	0.088856	0.626741	0.418822
749	C	0.08626	0.624147	0.376884
750	C	0.055768	0.627137	0.358997
751	N	0.030699	0.632551	0.384107
752	H	0.052283	0.625504	0.327633
753	H	0.992077	0.649294	0.513072
754	H	0.043183	0.643388	0.54405
755	C	0.114655	0.618542	0.35141
756	H	0.136018	0.616955	0.370766
757	H	0.118499	0.633195	0.328707
758	H	0.111143	0.601173	0.334955
759	C	0.977559	0.647897	0.432767
760	H	0.978504	0.659895	0.409488
761	C	0.097606	0.633048	0.507517
762	H	0.102697	0.644605	0.530669
763	C	0.987929	0.368715	0.566137
764	C	0.016322	0.373877	0.588691
765	C	0.046828	0.368744	0.571156
766	C	0.04949	0.35847	0.530681
767	C	0.021084	0.35276	0.508919
768	C	0.990881	0.357583	0.526484
769	N	0.07315	0.374	0.594522
770	C	0.072182	0.383919	0.6333
771	C	0.04192	0.389139	0.650318
772	N	0.015488	0.383959	0.62754
773	H	0.039553	0.396643	0.679326
774	H	0.970984	0.352839	0.509784
775	H	0.022093	0.34531	0.479646
776	C	0.101999	0.388915	0.656255
777	H	0.122903	0.383681	0.637908
778	H	0.102238	0.378446	0.685254
779	H	0.103653	0.408509	0.663444
780	C	0.958073	0.373188	0.584014
781	H	0.955615	0.3694	0.614078
782	C	0.078849	0.355344	0.511176
783	H	0.083615	0.340168	0.49507
784	C	0.094935	0.63354	0.065919
785	C	0.066552	0.628411	0.088517
786	C	0.036039	0.633541	0.071006
787	C	0.033355	0.643778	0.030506
788	C	0.061752	0.649456	0.008696
789	C	0.091963	0.644629	0.026234
790	N	0.009729	0.628326	0.094421
791	C	0.010715	0.618444	0.133225
792	C	0.040984	0.61322	0.150221
793	N	0.067404	0.618363	0.127394
794	H	0.043366	0.605746	0.179247
795	H	0.111851	0.649351	0.009499
796	H	0.06073	0.656871	0.979402
797	C	0.980909	0.613491	0.156234
798	H	0.959998	0.618719	0.1379
799	H	0.980706	0.623987	0.185205
800	H	0.97924	0.593904	0.163479
801	C	0.124801	0.629068	0.083776
802	H	0.127263	0.632844	0.113844
803	C	0.00398	0.646914	0.011038
804	H	0.999278	0.662018	0.994707
805	C	0.575273	0.861764	0.951437
806	C	0.54837	0.867815	0.926607
807	C	0.517725	0.871051	0.94507
808	C	0.513608	0.868172	0.988633
809	C	0.540714	0.862305	0.013051
810	C	0.570991	0.859097	0.994816
811	N	0.492697	0.876165	0.919347
812	C	0.495222	0.878673	0.87739
813	C	0.525682	0.875644	0.859435
814	N	0.550792	0.870291	0.884511
815	H	0.529118	0.877222	0.828052
816	H	0.589626	0.853791	0.013448
817	H	0.538577	0.859761	0.04454
818	C	0.466782	0.884225	0.851963
819	H	0.445452	0.885852	0.871375
820	H	0.462899	0.869523	0.829362
821	H	0.470265	0.901558	0.835396
822	C	0.604	0.855003	0.933068
823	H	0.602962	0.843017	0.909773
824	C	0.484061	0.869976	0.008105
825	H	0.479102	0.858515	0.031443
826	C	0.507669	0.140547	0.451538
827	C	0.534584	0.134529	0.426711
828	C	0.565236	0.131309	0.445162
829	C	0.56935	0.134166	0.488731
830	C	0.54224	0.140013	0.513156
831	C	0.511961	0.143218	0.494921
832	N	0.590269	0.126224	0.419432
833	C	0.587744	0.123736	0.377469
834	C	0.557279	0.12675	0.359524
835	N	0.532162	0.132073	0.384612
836	H	0.55384	0.125186	0.328137
837	H	0.493326	0.148503	0.513567
838	H	0.544377	0.142552	0.544645
839	C	0.616186	0.118216	0.352033
840	H	0.637521	0.116593	0.371439
841	H	0.620053	0.132931	0.329451
842	H	0.612722	0.100888	0.335441
843	C	0.478944	0.14734	0.433203
844	H	0.479987	0.159342	0.409936
845	C	0.59891	0.132403	0.508181
846	H	0.60384	0.14385	0.531547
847	C	0.487626	0.86868	0.566062
848	C	0.515894	0.873875	0.588862
849	C	0.546503	0.868846	0.571548
850	C	0.549398	0.858649	0.531046
851	C	0.521116	0.852909	0.509031
852	C	0.490811	0.857633	0.526372
853	N	0.572691	0.874096	0.59517
854	C	0.5715	0.883925	0.634004
855	C	0.541137	0.889055	0.650798
856	N	0.514837	0.883871	0.627768
857	H	0.538603	0.896483	0.679837
858	H	0.471014	0.852852	0.509501
859	H	0.52229	0.845502	0.479743
860	C	0.601188	0.888917	0.657249
861	H	0.622197	0.883759	0.639048
862	H	0.601308	0.87838	0.686179
863	H	0.602752	0.908497	0.664581
864	C	0.457665	0.873004	0.583753
865	H	0.455136	0.869212	0.613804
866	C	0.578869	0.855523	0.51182
867	H	0.583596	0.840439	0.495447
868	C	0.59517	0.133618	0.066298
869	C	0.566912	0.128458	0.089141
870	C	0.536296	0.133504	0.071859
871	C	0.533384	0.143673	0.031338
872	C	0.561661	0.14939	0.009289
873	C	0.591971	0.144649	0.026598
874	N	0.510117	0.128291	0.095525
875	C	0.511325	0.118483	0.134373
876	C	0.541692	0.113338	0.151138
877	N	0.567983	0.118485	0.128063
878	H	0.544241	0.105922	0.180183
879	H	0.611761	0.149407	0.009696
880	H	0.560475	0.156784	0.97999
881	C	0.481649	0.113531	0.157665
882	H	0.460632	0.118695	0.139483
883	H	0.481567	0.124085	0.186578
884	H	0.480063	0.093957	0.165034
885	C	0.625138	0.129272	0.083957
886	H	0.627689	0.133059	0.114008
887	C	0.503894	0.146835	0.012168
888	H	0.499289	0.161827	0.995498
889	C	0.270116	0.376555	0.199396
890	C	0.29172	0.37381	0.233172
891	C	0.282728	0.360407	0.269343
892	C	0.252033	0.349527	0.272142
893	C	0.231	0.351665	0.237928
894	C	0.239777	0.365175	0.202327
895	N	0.304143	0.358982	0.301219
896	C	0.333612	0.369477	0.30055
897	C	0.342441	0.382656	0.264596
898	N	0.321308	0.384333	0.232737
899	H	0.364225	0.391054	0.262239
900	H	0.223031	0.367612	0.179474
901	H	0.208385	0.344474	0.239455
902	C	0.355161	0.367187	0.336659
903	H	0.344067	0.356418	0.361469
904	H	0.360849	0.385424	0.348841
905	H	0.377258	0.358054	0.327281
906	C	0.276954	0.393009	0.167399
907	H	0.288115	0.408478	0.175149
908	C	0.241556	0.338219	0.308203
909	H	0.233283	0.32106	0.307001
910	C	0.812621	0.625786	0.699336
911	C	0.791021	0.628529	0.73312
912	C	0.800028	0.641914	0.769304
913	C	0.830739	0.65276	0.772122
914	C	0.851772	0.650619	0.737908
915	C	0.842974	0.637142	0.702284
916	N	0.778617	0.643342	0.801183
917	C	0.749129	0.632875	0.800501
918	C	0.740278	0.619726	0.764525
919	N	0.761414	0.618039	0.732672
920	H	0.718487	0.61134	0.762165
921	H	0.859717	0.634683	0.679435
922	H	0.8744	0.657786	0.739449
923	C	0.727587	0.635163	0.836617
924	H	0.7387	0.645907	0.861443
925	H	0.72187	0.616926	0.848768
926	H	0.705504	0.644322	0.827254
927	C	0.80574	0.609339	0.667342
928	H	0.79455	0.593885	0.675089
929	C	0.841233	0.664048	0.808194
930	H	0.849525	0.681204	0.807008
931	C	0.795841	0.373083	0.308964
932	C	0.774447	0.370274	0.274893
933	C	0.78391	0.357369	0.238388
934	C	0.814782	0.346819	0.235524
935	C	0.835853	0.349334	0.269571
936	C	0.826663	0.362481	0.305376
937	N	0.762817	0.356114	0.206132
938	C	0.733175	0.366294	0.20668
939	C	0.723747	0.378843	0.243008
940	N	0.744596	0.380362	0.275208
941	H	0.701794	0.386978	0.245338
942	H	0.843485	0.365084	0.328016
943	H	0.858706	0.342617	0.267838
944	C	0.712106	0.364372	0.170035
945	H	0.723666	0.354089	0.144997
946	H	0.706296	0.38274	0.158534
947	H	0.690035	0.35491	0.178539
948	C	0.787583	0.3882	0.342546
949	H	0.772914	0.402151	0.336764
950	C	0.825618	0.336207	0.199056
951	H	0.83334	0.318895	0.198946
952	C	0.28706	0.629306	0.808789
953	C	0.308411	0.632109	0.774672
954	C	0.298888	0.644986	0.738167
955	C	0.268007	0.655525	0.735362
956	C	0.246993	0.653047	0.769472
957	C	0.256231	0.639907	0.805267
958	N	0.319928	0.646223	0.705852
959	C	0.349581	0.636052	0.706347
960	C	0.359068	0.623536	0.742681
961	N	0.338267	0.62203	0.774933
962	H	0.381026	0.615403	0.744966
963	H	0.239438	0.63731	0.827943
964	H	0.224121	0.659728	0.767766
965	C	0.370592	0.637952	0.669646
966	H	0.358987	0.648211	0.644614
967	H	0.376395	0.619576	0.65817
968	H	0.39267	0.647429	0.678068
969	C	0.295378	0.614234	0.842408
970	H	0.31009	0.600308	0.836651
971	C	0.257111	0.666105	0.6989
972	H	0.249585	0.683468	0.698713
973	C	0.76819	0.875403	0.20053
974	C	0.789876	0.872414	0.234155
975	C	0.78096	0.858756	0.270082
976	C	0.750258	0.847869	0.272789
977	C	0.729156	0.850244	0.238694
978	C	0.737866	0.863992	0.203323
979	N	0.802435	0.857129	0.301861
980	C	0.831901	0.867635	0.301299
981	C	0.840657	0.881053	0.265571
982	N	0.819459	0.882943	0.233823
983	H	0.862433	0.889475	0.263306
984	H	0.721079	0.866611	0.180576
985	H	0.70653	0.84307	0.240181
986	C	0.853515	0.865122	0.337297
987	H	0.842471	0.854191	0.36194
988	H	0.859215	0.883282	0.349797
989	H	0.8756	0.856059	0.327686
990	C	0.774985	0.892104	0.168892
991	H	0.786057	0.907549	0.176977
992	C	0.739822	0.836439	0.308767
993	H	0.731599	0.819271	0.307498
994	C	0.314721	0.126901	0.700619
995	C	0.293045	0.129892	0.734247
996	C	0.301953	0.143569	0.770154
997	C	0.332639	0.154485	0.772829
998	C	0.353736	0.152111	0.738724
999	C	0.345035	0.138334	0.703383
1000	N	0.280485	0.145194	0.801939
1001	C	0.251034	0.134664	0.801404
1002	C	0.242283	0.121225	0.765696
1003	N	0.263476	0.119338	0.733939
1004	H	0.220519	0.112785	0.763451
1005	H	0.361817	0.135735	0.680621
1006	H	0.37635	0.159308	0.74019
1007	C	0.229425	0.137176	0.837407
1008	H	0.240461	0.148126	0.862032
1009	H	0.223752	0.119017	0.849933
1010	H	0.207324	0.146217	0.827793
1011	C	0.307955	0.110195	0.668977
1012	H	0.296904	0.094742	0.677066
1013	C	0.343075	0.165934	0.808789
1014	H	0.351278	0.183107	0.807503
1015	C	0.29512	0.872504	0.309083
1016	C	0.273781	0.869656	0.274967
1017	C	0.283361	0.856825	0.238441
1018	C	0.314295	0.846382	0.235605
1019	C	0.335312	0.848924	0.269701
1020	C	0.326013	0.86202	0.305514
1021	N	0.262314	0.855546	0.206138
1022	C	0.232614	0.865628	0.206661
1023	C	0.22307	0.878093	0.24302
1024	N	0.243873	0.879641	0.275264
1025	H	0.201073	0.886159	0.245329
1026	H	0.342805	0.864673	0.328174
1027	H	0.358221	0.842323	0.267973
1028	C	0.211606	0.863699	0.169959
1029	H	0.223255	0.853491	0.144903
1030	H	0.205715	0.882067	0.158529
1031	H	0.189574	0.854154	0.178369
1032	C	0.286709	0.887492	0.342764
1033	H	0.271883	0.901358	0.337082
1034	C	0.325236	0.835835	0.199139
1035	H	0.333062	0.818549	0.199002
1036	C	0.787693	0.129725	0.809215
1037	C	0.809075	0.132551	0.775142
1038	C	0.799561	0.145395	0.7386
1039	C	0.768649	0.155878	0.735716
1040	C	0.747606	0.153389	0.769796
1041	C	0.756823	0.140243	0.805588
1042	N	0.820645	0.146652	0.706335
1043	C	0.850323	0.13653	0.706908
1044	C	0.859801	0.124047	0.743276
1045	N	0.838962	0.122526	0.775484
1046	H	0.881781	0.115958	0.745627
1047	H	0.740022	0.137648	0.828257
1048	H	0.724716	0.160025	0.768025
1049	C	0.871375	0.13844	0.670244
1050	H	0.859775	0.148667	0.645172
1051	H	0.877238	0.120066	0.658815
1052	H	0.89342	0.147954	0.6787
1053	C	0.796049	0.11472	0.842899
1054	H	0.810844	0.100833	0.83723
1055	C	0.757792	0.16647	0.699239
1056	H	0.749811	0.183712	0.699168
