data_C540H756N432_2018-02-15_10:33:17
#******************************************
#
# CIF file created by Zeo++
# Zeo++ is an open source package to
# analyze microporous materials
#
#*******************************************

_cell_length_a		58.4315   
_cell_length_b		58.4316   
_cell_length_c		29.9858   
_cell_angle_alpha		90   
_cell_angle_beta		90   
_cell_angle_gamma		120   

_symmetry_space_group_name_H-M		'P1'
_symmetry_Int_Tables_number		1
_symmetry_cell_setting		Monoclinic

loop_
_symmetry_equiv_pos_as_xyz
'+x,+y,+z'

loop_
_atom_site_label
_atom_site_type_symbol
_atom_site_fract_x
_atom_site_fract_y
_atom_site_fract_z
1	H	0.005916	0.393994	0.220546
2	H	0.005916	0.393994	0.553881
3	H	0.005916	0.393994	0.887212
4	H	0.007048	0.394389	0.113296
5	H	0.005927	0.630396	0.113419
6	H	0.007121	0.631172	0.220574
7	H	0.007048	0.394389	0.446631
8	H	0.005927	0.630396	0.446754
9	H	0.007121	0.631172	0.553908
10	H	0.007048	0.394389	0.779965
11	H	0.005927	0.630396	0.780085
12	H	0.007121	0.631172	0.887242
13	C	0.012955	0.403859	0.046742
14	C	0.013	0.627692	0.287183
15	C	0.012955	0.403859	0.380076
16	C	0.013	0.627692	0.620516
17	C	0.012955	0.403859	0.71341
18	C	0.013	0.627692	0.95385
19	C	0.106772	0.450113	0.361384
20	N	0.128351	0.448176	0.038531
21	C	0.1532	0.469076	0.033314
22	N	0.156273	0.492357	0.017988
23	C	0.135033	0.494877	0.007317
24	N	0.110539	0.473588	0.012436
25	C	0.176415	0.466661	0.045109
26	H	0.176988	0.465134	0.081329
27	H	0.194429	0.484565	0.36806
28	C	0.137322	0.519952	0.991972
29	H	0.123781	0.523403	0.0123
30	H	0.130603	0.517506	0.290745
31	C	0.079899	0.427182	0.034024
32	H	0.078118	0.419471	0.067784
33	H	0.077383	0.411817	0.343809
34	C	0.568876	0.675195	0.361341
35	N	0.570818	0.69871	0.038506
36	C	0.549914	0.702658	0.033346
37	N	0.526621	0.682448	0.018056
38	C	0.524096	0.658688	0.007369
39	N	0.545389	0.655485	0.012428
40	C	0.552339	0.728291	0.045156
41	H	0.553871	0.730385	0.081376
42	H	0.534437	0.728409	0.368117
43	C	0.499013	0.635901	0.992055
44	H	0.495573	0.61891	0.012375
45	H	0.501442	0.631627	0.290818
46	C	0.591814	0.671259	0.033906
47	H	0.599548	0.677185	0.067653
48	H	0.60716	0.684112	0.343666
49	C	0.343782	0.912208	0.361341
50	N	0.320274	0.890636	0.038539
51	C	0.316324	0.865784	0.033364
52	N	0.336525	0.862701	0.018023
53	C	0.360277	0.883937	0.007301
54	N	0.363482	0.908433	0.012379
55	C	0.290695	0.842582	0.045203
56	H	0.288612	0.842024	0.081424
57	H	0.290572	0.824559	0.368164
58	C	0.383061	0.881648	0.991938
59	H	0.400065	0.895217	0.012218
60	H	0.387306	0.888338	0.290693
61	C	0.347722	0.939083	0.033934
62	H	0.34181	0.940886	0.067695
63	H	0.33486	0.941579	0.343722
64	C	0.906247	0.574917	0.361404
65	N	0.884668	0.576858	0.038532
66	C	0.859819	0.55596	0.033302
67	N	0.856745	0.532677	0.017989
68	C	0.877983	0.530153	0.007338
69	N	0.902479	0.551438	0.012465
70	C	0.836598	0.558369	0.045085
71	H	0.836033	0.559908	0.081304
72	H	0.818587	0.540453	0.36806
73	C	0.875685	0.505072	0.992012
74	H	0.889217	0.501616	0.012354
75	H	0.882408	0.507511	0.290789
76	C	0.933122	0.597845	0.034054
77	H	0.934918	0.60552	0.067842
78	H	0.935624	0.613231	0.343899
79	C	0.444121	0.349847	0.361417
80	N	0.442177	0.326329	0.038567
81	C	0.463073	0.322372	0.033364
82	N	0.486358	0.342577	0.018043
83	C	0.488884	0.366338	0.007369
84	N	0.467599	0.369551	0.012476
85	C	0.460646	0.296738	0.045151
86	H	0.4591	0.294625	0.081368
87	H	0.478552	0.296625	0.368124
88	C	0.513965	0.389119	0.992025
89	H	0.517419	0.406114	0.012351
90	H	0.511523	0.393391	0.290798
91	C	0.421192	0.353793	0.034038
92	H	0.413475	0.347865	0.067794
93	H	0.405832	0.340948	0.343816
94	C	0.669189	0.112798	0.361341
95	N	0.692701	0.134374	0.038509
96	C	0.696642	0.159224	0.033346
97	N	0.676432	0.162301	0.018049
98	C	0.652674	0.141062	0.007367
99	N	0.649477	0.116568	0.012424
100	C	0.722275	0.182436	0.04515
101	H	0.724375	0.182998	0.081369
102	H	0.722384	0.200453	0.36812
103	C	0.629888	0.143355	0.992025
104	H	0.612891	0.129793	0.012321
105	H	0.625632	0.136662	0.290783
106	C	0.665259	0.085925	0.033914
107	H	0.671188	0.084123	0.067661
108	H	0.678111	0.083433	0.343676
109	C	0.444044	0.112762	0.972442
110	N	0.442106	0.134339	0.961951
111	C	0.463009	0.159189	0.967146
112	N	0.486294	0.162264	0.98246
113	C	0.488813	0.141026	0.993135
114	N	0.467521	0.116531	0.988046
115	C	0.460597	0.182404	0.288674
116	H	0.459057	0.182962	0.252454
117	H	0.478508	0.200418	0.965696
118	C	0.51389	0.143322	0.008492
119	H	0.517331	0.129759	0.32154
120	H	0.511452	0.136636	0.043069
121	C	0.42111	0.085888	0.966493
122	H	0.4134	0.084094	0.266062
123	H	0.405747	0.083384	0.990034
124	C	0.669136	0.574923	0.972332
125	N	0.692664	0.57687	0.961904
126	C	0.696618	0.555974	0.96716
127	N	0.676406	0.532693	0.982474
128	C	0.652638	0.530165	0.993095
129	N	0.649427	0.551448	0.98794
130	C	0.722251	0.558383	0.288745
131	H	0.724374	0.559932	0.25253
132	H	0.72234	0.540465	0.965769
133	C	0.629856	0.505084	0.008427
134	H	0.612868	0.501622	0.321408
135	H	0.625568	0.507526	0.042978
136	C	0.665186	0.597849	0.966323
137	H	0.671112	0.605546	0.265889
138	H	0.678033	0.613223	0.989861
139	C	0.906215	0.349831	0.972459
140	N	0.884645	0.326315	0.961954
141	C	0.859792	0.32236	0.96713
142	N	0.856703	0.342563	0.982437
143	C	0.877936	0.366322	0.993132
144	N	0.902435	0.369533	0.988056
145	C	0.836586	0.296726	0.288651
146	H	0.836035	0.294623	0.252433
147	H	0.818563	0.296613	0.965659
148	C	0.875634	0.389105	0.008463
149	H	0.889181	0.406098	0.321477
150	H	0.882341	0.393376	0.043028
151	C	0.933093	0.353779	0.96654
152	H	0.934903	0.347877	0.266108
153	H	0.935588	0.340913	0.990077
154	C	0.56891	0.912251	0.972402
155	N	0.570857	0.890675	0.961941
156	C	0.54996	0.865825	0.967153
157	N	0.526672	0.862744	0.982457
158	C	0.524143	0.88398	0.993109
159	N	0.545429	0.908479	0.987996
160	C	0.552389	0.842615	0.288711
161	H	0.553941	0.842048	0.252495
162	H	0.534479	0.824597	0.965732
163	C	0.499061	0.881684	0.008438
164	H	0.49561	0.895222	0.321436
165	H	0.501499	0.888403	0.042996
166	C	0.591839	0.939127	0.966436
167	H	0.599556	0.940909	0.266015
168	H	0.607199	0.941644	0.989997
169	C	0.343815	0.450081	0.972426
170	N	0.320297	0.448133	0.961924
171	C	0.316334	0.469025	0.96713
172	N	0.336529	0.49231	0.982467
173	C	0.36029	0.494841	0.993162
174	N	0.36351	0.47356	0.988056
175	C	0.290703	0.4666	0.288647
176	H	0.288598	0.465037	0.252429
177	H	0.290597	0.484516	0.965632
178	C	0.383062	0.519923	0.008527
179	H	0.400073	0.523369	0.321591
180	H	0.387303	0.517486	0.043111
181	C	0.347777	0.427162	0.966466
182	H	0.341888	0.419469	0.266021
183	H	0.33491	0.411785	0.989977
184	C	0.106806	0.675239	0.972476
185	N	0.128379	0.698745	0.961944
186	C	0.15323	0.70269	0.967113
187	N	0.156309	0.682485	0.982444
188	C	0.135073	0.658736	0.993162
189	N	0.110577	0.655534	0.98809
190	C	0.176436	0.728316	0.288601
191	H	0.177001	0.730387	0.252377
192	H	0.194456	0.728443	0.965666
193	C	0.137358	0.635945	0.008502
194	H	0.123803	0.618952	0.321522
195	H	0.130651	0.63168	0.043068
196	C	0.079932	0.671302	0.966553
197	H	0.078131	0.677219	0.266126
198	H	0.077438	0.684165	0.990101
199	C	0.19859	0.443256	0.012706
200	C	0.215002	0.441748	0.046413
201	C	0.23974	0.444299	0.03382
202	C	0.245141	0.443248	0.321111
203	C	0.227196	0.441689	0.287411
204	C	0.205008	0.44424	0.299994
205	N	0.258275	0.447742	0.065127
206	H	0.256904	0.452046	0.095825
207	H	0.275454	0.450238	0.056924
208	N	0.206637	0.437191	0.089791
209	H	0.189103	0.433448	0.098183
210	H	0.215578	0.432717	0.112397
211	N	0.230993	0.43707	0.244068
212	H	0.244818	0.433407	0.235565
213	H	0.217591	0.432628	0.221434
214	N	0.189886	0.447641	0.268703
215	H	0.175096	0.449989	0.276796
216	H	0.195405	0.451735	0.237896
217	N	0.268764	0.443013	0.310568
218	H	0.264856	0.425648	0.295464
219	N	0.174747	0.443052	0.023246
220	H	0.161286	0.425702	0.038386
221	C	0.57575	0.773871	0.012757
222	C	0.5773	0.791808	0.04646
223	C	0.574764	0.814006	0.033879
224	C	0.575778	0.820439	0.321167
225	C	0.577299	0.804037	0.287457
226	C	0.574733	0.779291	0.30005
227	N	0.571375	0.829128	0.065198
228	H	0.567099	0.823472	0.095908
229	H	0.568898	0.843825	0.057005
230	N	0.581897	0.787998	0.089808
231	H	0.585543	0.774161	0.098318
232	H	0.586339	0.8014	0.112446
233	N	0.58186	0.812416	0.244081
234	H	0.585673	0.829968	0.235716
235	H	0.586471	0.803499	0.221629
236	N	0.571271	0.760743	0.268765
237	H	0.568908	0.7436	0.27686
238	H	0.567142	0.762162	0.237973
239	N	0.575986	0.844285	0.310626
240	H	0.593347	0.857753	0.295519
241	N	0.575951	0.75023	0.023294
242	H	0.5933	0.754117	0.038434
243	C	0.245129	0.820421	0.012748
244	C	0.227168	0.804005	0.046403
245	C	0.204973	0.779287	0.033753
246	C	0.198591	0.773892	0.321021
247	C	0.215029	0.791834	0.287362
248	C	0.23975	0.814022	0.300018
249	N	0.189802	0.760763	0.065021
250	H	0.195413	0.76212	0.095753
251	H	0.175099	0.743602	0.056781
252	N	0.230954	0.812376	0.089772
253	H	0.2448	0.829843	0.098334
254	H	0.217542	0.8034	0.112386
255	N	0.206675	0.788038	0.243983
256	H	0.189208	0.774201	0.235414
257	H	0.215666	0.801442	0.221362
258	N	0.258296	0.829175	0.268767
259	H	0.27546	0.84387	0.276989
260	H	0.256941	0.823524	0.238055
261	N	0.174754	0.750267	0.310401
262	H	0.161318	0.754168	0.295195
263	N	0.268753	0.844259	0.023362
264	H	0.264853	0.857705	0.038532
265	C	0.814382	0.581731	0.012689
266	C	0.797994	0.583257	0.046422
267	C	0.77325	0.580705	0.033873
268	C	0.76782	0.581743	0.321176
269	C	0.785744	0.58329	0.287447
270	C	0.807929	0.580723	0.299988
271	N	0.754724	0.577255	0.065191
272	H	0.756144	0.573137	0.095985
273	H	0.737582	0.574899	0.057099
274	N	0.806416	0.587857	0.089761
275	H	0.823915	0.591539	0.09824
276	H	0.797453	0.592278	0.112418
277	N	0.781938	0.587918	0.244115
278	H	0.768125	0.591608	0.235642
279	H	0.795332	0.592353	0.221469
280	N	0.82301	0.577295	0.268646
281	H	0.83774	0.574858	0.27679
282	H	0.817429	0.573125	0.237885
283	N	0.744185	0.581968	0.310674
284	H	0.748088	0.599333	0.295577
285	N	0.838243	0.581958	0.023189
286	H	0.851699	0.599319	0.038309
287	C	0.437243	0.251167	0.012706
288	C	0.435709	0.233234	0.046409
289	C	0.438256	0.211046	0.033816
290	C	0.437232	0.204609	0.321104
291	C	0.435702	0.221011	0.287403
292	C	0.438254	0.245749	0.299996
293	N	0.441669	0.195934	0.065127
294	H	0.445953	0.201596	0.095834
295	H	0.444161	0.181248	0.056925
296	N	0.431129	0.23703	0.089779
297	H	0.42739	0.250824	0.098169
298	H	0.426635	0.223606	0.112377
299	N	0.431108	0.212611	0.244052
300	H	0.427442	0.195123	0.23554
301	H	0.426686	0.221582	0.221411
302	N	0.441681	0.264285	0.268714
303	H	0.444029	0.281422	0.276813
304	H	0.445791	0.26287	0.237913
305	N	0.436999	0.180752	0.310557
306	H	0.419642	0.167304	0.295419
307	N	0.437044	0.274808	0.023251
308	H	0.419688	0.270921	0.038364
309	C	0.767849	0.204617	0.01272
310	C	0.785793	0.221005	0.046414
311	C	0.807986	0.245741	0.033822
312	C	0.814405	0.25116	0.321106
313	C	0.797992	0.233236	0.287403
314	C	0.773253	0.211055	0.300011
315	N	0.823116	0.264254	0.065133
316	H	0.817467	0.262872	0.095848
317	H	0.837807	0.281426	0.056933
318	N	0.781994	0.212601	0.089762
319	H	0.76816	0.195119	0.098278
320	H	0.7954	0.221563	0.112391
321	N	0.806358	0.237058	0.244019
322	H	0.823907	0.2508	0.235641
323	H	0.797437	0.223531	0.221567
324	N	0.754697	0.195968	0.268739
325	H	0.737557	0.181185	0.276845
326	H	0.756104	0.201515	0.237949
327	N	0.838252	0.274794	0.310552
328	H	0.851713	0.270897	0.295434
329	N	0.744213	0.180771	0.023269
330	H	0.748109	0.167312	0.0384
331	C	0.166612	0.568485	0.330543
332	C	0.166275	0.581589	0.290617
333	C	0.168096	0.606848	0.293792
334	C	0.166617	0.616671	0.003228
335	C	0.166292	0.603236	0.043155
336	C	0.168103	0.579792	0.039978
337	N	0.17129	0.621892	0.256724
338	H	0.175535	0.617677	0.227818
339	H	0.173531	0.639486	0.258811
340	N	0.163971	0.569724	0.250216
341	H	0.163211	0.552863	0.247326
342	H	0.160502	0.576233	0.222856
343	N	0.164002	0.612804	0.083558
344	H	0.163249	0.628908	0.086451
345	H	0.160535	0.602826	0.11092
346	N	0.171307	0.567941	0.077035
347	H	0.173536	0.552583	0.07497
348	H	0.175572	0.576421	0.105928
349	N	0.164441	0.639903	0.004083
350	H	0.178172	0.654479	0.024315
351	N	0.164414	0.543067	0.329693
352	H	0.178132	0.542208	0.309451
353	C	0.450482	0.616648	0.330628
354	C	0.437402	0.603226	0.290674
355	C	0.412163	0.579755	0.293808
356	C	0.40231	0.568451	0.003231
357	C	0.415709	0.581555	0.043184
358	C	0.439161	0.606806	0.040047
359	N	0.397148	0.567884	0.25673
360	H	0.401419	0.57619	0.227709
361	H	0.379608	0.552425	0.258705
362	N	0.449269	0.61284	0.250292
363	H	0.46612	0.628981	0.247442
364	H	0.442779	0.602921	0.222907
365	N	0.406092	0.569698	0.083573
366	H	0.389966	0.552836	0.086427
367	H	0.41601	0.576206	0.110958
368	N	0.450999	0.621837	0.07713
369	H	0.466401	0.639409	0.075093
370	H	0.442624	0.617598	0.106094
371	N	0.379088	0.543036	0.004051
372	H	0.364485	0.54218	0.024223
373	N	0.475895	0.639871	0.329821
374	H	0.476755	0.654467	0.309625
375	C	0.402349	0.852401	0.330566
376	C	0.415761	0.852696	0.290628
377	C	0.439205	0.850883	0.293792
378	C	0.450529	0.852391	0.003217
379	C	0.437445	0.852749	0.043156
380	C	0.4122	0.850962	0.039999
381	N	0.451032	0.847656	0.256723
382	H	0.442554	0.843386	0.227828
383	H	0.466384	0.845415	0.258802
384	N	0.406172	0.854948	0.25022
385	H	0.39009	0.855737	0.247368
386	H	0.416157	0.858436	0.222854
387	N	0.449317	0.855027	0.083542
388	H	0.466156	0.855751	0.086411
389	H	0.442811	0.858472	0.110937
390	N	0.39717	0.847814	0.077059
391	H	0.379637	0.845732	0.075095
392	H	0.401452	0.843777	0.10609
393	N	0.475947	0.854591	0.004039
394	H	0.476814	0.84087	0.024263
395	N	0.379112	0.854569	0.329719
396	H	0.364528	0.840825	0.309516
397	C	0.84638	0.456545	0.330562
398	C	0.846712	0.443449	0.290624
399	C	0.844887	0.418188	0.293779
400	C	0.846355	0.408351	0.003208
401	C	0.846667	0.421769	0.04315
402	C	0.844876	0.445224	0.039987
403	N	0.841696	0.403154	0.2567
404	H	0.837458	0.407377	0.227794
405	H	0.839449	0.385558	0.258773
406	N	0.849016	0.455324	0.250233
407	H	0.849774	0.472183	0.247355
408	H	0.852479	0.448817	0.222861
409	N	0.848898	0.412159	0.083555
410	H	0.849708	0.396087	0.086398
411	H	0.852437	0.422174	0.110888
412	N	0.84166	0.457067	0.077036
413	H	0.839567	0.472513	0.075063
414	H	0.837561	0.44871	0.106035
415	N	0.848542	0.385127	0.004039
416	H	0.834813	0.370539	0.024254
417	N	0.848585	0.481965	0.329732
418	H	0.834871	0.482836	0.309494
419	C	0.56249	0.408353	0.330584
420	C	0.575582	0.421783	0.290645
421	C	0.600831	0.445234	0.293799
422	C	0.610649	0.456559	0.003225
423	C	0.597228	0.443455	0.043164
424	C	0.573801	0.418186	0.04001
425	N	0.61587	0.457079	0.256724
426	H	0.611662	0.448607	0.227828
427	H	0.633458	0.47244	0.2588
428	N	0.563715	0.412202	0.250251
429	H	0.546864	0.396093	0.247374
430	H	0.570217	0.422174	0.222882
431	N	0.606791	0.455332	0.083556
432	H	0.622881	0.472203	0.086433
433	H	0.596819	0.448821	0.110923
434	N	0.561966	0.403138	0.077079
435	H	0.546622	0.38554	0.075027
436	H	0.570452	0.407367	0.105968
437	N	0.633857	0.481983	0.004057
438	H	0.648442	0.48286	0.0243
439	N	0.537075	0.385133	0.329759
440	H	0.536209	0.370549	0.309527
441	C	0.61062	0.172621	0.330613
442	C	0.597203	0.172286	0.290658
443	C	0.573733	0.174053	0.293792
444	C	0.562424	0.172593	0.003213
445	C	0.575521	0.172289	0.043168
446	C	0.600772	0.174088	0.040034
447	N	0.561864	0.177205	0.256716
448	H	0.570181	0.181248	0.227687
449	H	0.546411	0.179283	0.258687
450	N	0.606828	0.170044	0.250279
451	H	0.622953	0.169336	0.247427
452	H	0.596899	0.166619	0.222867
453	N	0.563656	0.17004	0.08355
454	H	0.546811	0.169304	0.086407
455	H	0.570169	0.166621	0.110958
456	N	0.615799	0.177272	0.077119
457	H	0.633368	0.179442	0.075087
458	H	0.611554	0.181402	0.106095
459	N	0.537011	0.170407	0.004031
460	H	0.536157	0.184152	0.02421
461	N	0.63385	0.170438	0.329807
462	H	0.648447	0.184182	0.309622
463	C	0.033151	0.415679	0.013789
464	C	0.985987	0.392121	0.033164
465	C	0.979838	0.388989	0.32013
466	C	3.3e-05	0.397413	0.287172
467	C	0.026998	0.412641	0.300756
468	N	0.966091	0.384797	0.063712
469	H	0.969469	0.389417	0.094947
470	H	0.947707	0.377037	0.054986
471	N	0.019846	0.404652	0.090545
472	H	0.03809	0.411898	0.099615
473	N	0.993115	0.39133	0.243377
474	H	0.974881	0.380416	0.234211
475	N	0.046909	0.425237	0.270244
476	H	0.065303	0.435798	0.27895
477	H	0.043577	0.42637	0.238949
478	N	0.953617	0.381766	0.307564
479	H	0.952881	0.394642	0.285007
480	N	0.05937	0.434646	0.02641
481	H	0.06011	0.448246	0.049002
482	C	0.603335	0.636038	0.013612
483	C	0.615139	0.627643	0.046551
484	C	0.62685	0.612391	0.032943
485	C	0.629936	0.609342	0.319903
486	C	0.621539	0.621151	0.286966
487	C	0.606312	0.632888	0.300577
488	N	0.634172	0.599803	0.063462
489	H	0.629592	0.598584	0.094711
490	H	0.641892	0.589147	0.054703
491	N	0.614374	0.633767	0.090344
492	H	0.60708	0.644703	0.099528
493	H	0.624559	0.631135	0.113126
494	N	0.627598	0.620329	0.243147
495	H	0.63865	0.61315	0.234071
496	H	0.625138	0.630712	0.220528
497	N	0.593674	0.64016	0.270079
498	H	0.583112	0.647991	0.278796
499	H	0.59248	0.635621	0.238807
500	N	0.63719	0.590379	0.307261
501	H	0.624334	0.576779	0.284669
502	N	0.584353	0.643268	0.026263
503	H	0.570765	0.630404	0.048864
504	C	0.382931	0.985829	0.013699
505	C	0.391337	0.006017	0.046667
506	C	0.406563	0.032988	0.033105
507	C	0.409582	0.03914	0.320076
508	C	0.397815	0.018957	0.287097
509	C	0.386077	0.991985	0.300665
510	N	0.41913	0.052889	0.063646
511	H	0.42036	0.04952	0.094888
512	H	0.429753	0.071273	0.054913
513	N	0.385235	0.999095	0.090456
514	H	0.374321	0.980859	0.099616
515	H	0.387876	0.011896	0.113277
516	N	0.398629	0.025874	0.243307
517	H	0.40594	0.044109	0.234146
518	H	0.388468	0.013071	0.220491
519	N	0.378768	0.972089	0.270121
520	H	0.371003	0.953703	0.278835
521	H	0.383391	0.975472	0.238888
522	N	0.428571	0.06536	0.307475
523	H	0.442184	0.066099	0.284915
524	N	0.375709	0.959608	0.026262
525	H	0.388581	0.958874	0.048833
526	C	0.979877	0.609409	0.013784
527	C	6.4e-05	0.621165	0.04676
528	C	0.027034	0.632933	0.033189
529	C	0.033184	0.636087	0.320159
530	C	0.986033	0.612462	0.300749
531	N	0.046943	0.640259	0.063705
532	H	0.04362	0.635783	0.094995
533	H	0.065343	0.648128	0.054993
534	N	0.993134	0.620278	0.09056
535	H	0.974898	0.612936	0.099721
536	N	0.019923	0.633809	0.243397
537	H	0.038156	0.644723	0.234238
538	N	0.966133	0.599906	0.2702
539	H	0.947739	0.589319	0.278913
540	H	0.96948	0.598736	0.238927
541	N	0.059403	0.643316	0.30755
542	H	0.060134	0.630441	0.284984
543	N	0.953653	0.590396	0.026323
544	H	0.952918	0.576765	0.048837
545	C	0.4097	0.389042	0.013778
546	C	0.397865	0.397409	0.046716
547	C	0.386121	0.412631	0.03312
548	C	0.383001	0.415649	0.320081
549	C	0.391444	0.403889	0.287136
550	C	0.406679	0.39216	0.300741
551	N	0.37878	0.425196	0.063656
552	H	0.38339	0.426437	0.094895
553	H	0.371014	0.435814	0.054918
554	N	0.398644	0.391309	0.090523
555	H	0.405897	0.380317	0.099606
556	H	0.388372	0.393836	0.11326
557	N	0.385374	0.404723	0.243335
558	H	0.37445	0.412033	0.234157
559	H	0.388052	0.394593	0.220509
560	N	0.419291	0.384856	0.270245
561	H	0.429859	0.377033	0.278965
562	H	0.420434	0.389326	0.238951
563	N	0.375766	0.434636	0.307501
564	H	0.388645	0.448255	0.284954
565	N	0.428664	0.381789	0.026423
566	H	0.442255	0.394644	0.049026
567	C	0.630041	0.039178	0.013653
568	C	0.621643	0.018987	0.046611
569	C	0.60639	0.992021	0.033025
570	C	0.603337	0.985871	0.31999
571	C	0.615149	0.006069	0.287036
572	C	0.626889	0.033036	0.300623
573	N	0.593802	0.972119	0.063558
574	H	0.592586	0.97549	0.094805
575	H	0.583146	0.95374	0.054815
576	N	0.627769	0.02589	0.090399
577	H	0.638706	0.044123	0.099568
578	H	0.625134	0.013079	0.113195
579	N	0.614324	0.999174	0.243223
580	H	0.607135	0.98094	0.23416
581	H	0.624707	0.01201	0.220596
582	N	0.634163	0.052937	0.270108
583	H	0.641999	0.071334	0.278808
584	H	0.629626	0.049586	0.238837
585	N	0.584368	0.959651	0.307369
586	H	0.570773	0.95891	0.28477
587	N	0.637268	0.065393	0.026279
588	H	0.624404	0.06612	0.048874
589	C	0.106772	0.450113	0.694718
590	N	0.128351	0.448176	0.371866
591	C	0.1532	0.469076	0.36665
592	N	0.156273	0.492357	0.351322
593	C	0.135033	0.494877	0.340651
594	N	0.110539	0.473588	0.34577
595	C	0.176415	0.466661	0.378442
596	H	0.176988	0.465134	0.414662
597	H	0.194429	0.484565	0.701394
598	C	0.137322	0.519952	0.325304
599	H	0.123781	0.523403	0.345633
600	H	0.130603	0.517506	0.624078
601	C	0.079899	0.427182	0.367357
602	H	0.078118	0.419471	0.401116
603	H	0.077383	0.411817	0.677143
604	C	0.568876	0.675195	0.694675
605	N	0.570818	0.69871	0.371839
606	C	0.549914	0.702658	0.36668
607	N	0.526621	0.682448	0.351389
608	C	0.524096	0.658688	0.340701
609	N	0.545389	0.655485	0.345763
610	C	0.552339	0.728291	0.378489
611	H	0.553871	0.730385	0.414709
612	H	0.534437	0.728409	0.701451
613	C	0.499013	0.635901	0.325386
614	H	0.495573	0.61891	0.34571
615	H	0.501442	0.631627	0.624151
616	C	0.591814	0.671259	0.36724
617	H	0.599548	0.677185	0.400986
618	H	0.60716	0.684112	0.677
619	C	0.343782	0.912208	0.694675
620	N	0.320274	0.890636	0.371872
621	C	0.316324	0.865784	0.366696
622	N	0.336525	0.862701	0.351356
623	C	0.360277	0.883937	0.340634
624	N	0.363482	0.908433	0.345713
625	C	0.290695	0.842582	0.378535
626	H	0.288612	0.842024	0.414759
627	H	0.290572	0.824559	0.701498
628	C	0.383061	0.881648	0.325269
629	H	0.400065	0.895217	0.345553
630	H	0.387306	0.888338	0.624028
631	C	0.347722	0.939083	0.367267
632	H	0.34181	0.940886	0.401029
633	H	0.33486	0.941579	0.677056
634	C	0.906247	0.574917	0.694738
635	N	0.884668	0.576858	0.371866
636	C	0.859819	0.55596	0.366636
637	N	0.856745	0.532677	0.351322
638	C	0.877983	0.530153	0.340671
639	N	0.902479	0.551438	0.3458
640	C	0.836598	0.558369	0.378419
641	H	0.836033	0.559908	0.414639
642	H	0.818587	0.540453	0.701394
643	C	0.875685	0.505072	0.325343
644	H	0.889217	0.501616	0.345686
645	H	0.882408	0.507511	0.624121
646	C	0.933122	0.597845	0.367387
647	H	0.934918	0.60552	0.401176
648	H	0.935624	0.613231	0.677233
649	C	0.444121	0.349847	0.694751
650	N	0.442177	0.326329	0.371902
651	C	0.463073	0.322372	0.366696
652	N	0.486358	0.342577	0.351376
653	C	0.488884	0.366338	0.340704
654	N	0.467599	0.369551	0.34581
655	C	0.460646	0.296738	0.378485
656	H	0.4591	0.294625	0.414702
657	H	0.478552	0.296625	0.701458
658	C	0.513965	0.389119	0.325358
659	H	0.517419	0.406114	0.345686
660	H	0.511523	0.393391	0.624131
661	C	0.421192	0.353793	0.367373
662	H	0.413475	0.347865	0.401129
663	H	0.405832	0.340948	0.67715
664	C	0.669189	0.112798	0.694675
665	N	0.692701	0.134374	0.371842
666	C	0.696642	0.159224	0.36668
667	N	0.676432	0.162301	0.351383
668	C	0.652674	0.141062	0.340701
669	N	0.649477	0.116568	0.345757
670	C	0.722275	0.182436	0.378482
671	H	0.724375	0.182998	0.414702
672	H	0.722384	0.200453	0.701454
673	C	0.629888	0.143355	0.325356
674	H	0.612891	0.129793	0.345656
675	H	0.625632	0.136662	0.624118
676	C	0.665259	0.085925	0.367247
677	H	0.671188	0.084123	0.400996
678	H	0.678111	0.083433	0.67701
679	C	0.444044	0.112762	0.305775
680	N	0.442106	0.134339	0.295284
681	C	0.463009	0.159189	0.300479
682	N	0.486294	0.162264	0.315794
683	C	0.488813	0.141026	0.326467
684	N	0.467521	0.116531	0.321378
685	C	0.460597	0.182404	0.622007
686	H	0.459057	0.182962	0.58579
687	H	0.478508	0.200418	0.299029
688	C	0.51389	0.143322	0.341825
689	H	0.517331	0.129759	0.654872
690	H	0.511452	0.136636	0.376401
691	C	0.42111	0.085888	0.299825
692	H	0.4134	0.084094	0.599396
693	H	0.405747	0.083384	0.323367
694	C	0.669136	0.574923	0.305666
695	N	0.692664	0.57687	0.295237
696	C	0.696618	0.555974	0.300492
697	N	0.676406	0.532693	0.315805
698	C	0.652638	0.530165	0.326426
699	N	0.649427	0.551448	0.321271
700	C	0.722251	0.558383	0.622077
701	H	0.724374	0.559932	0.585863
702	H	0.72234	0.540465	0.299103
703	C	0.629856	0.505084	0.341761
704	H	0.612868	0.501622	0.654742
705	H	0.625568	0.507526	0.376311
706	C	0.665186	0.597849	0.299657
707	H	0.671112	0.605546	0.599223
708	H	0.678033	0.613223	0.323192
709	C	0.906215	0.349831	0.305792
710	N	0.884645	0.326315	0.295288
711	C	0.859792	0.32236	0.300461
712	N	0.856703	0.342563	0.315771
713	C	0.877936	0.366322	0.326464
714	N	0.902435	0.369533	0.32139
715	C	0.836586	0.296726	0.621984
716	H	0.836035	0.294623	0.585766
717	H	0.818563	0.296613	0.298992
718	C	0.875634	0.389105	0.341798
719	H	0.889181	0.406098	0.654812
720	H	0.882341	0.393376	0.376361
721	C	0.933093	0.353779	0.299872
722	H	0.934903	0.347877	0.599443
723	H	0.935588	0.340913	0.32341
724	C	0.56891	0.912251	0.305736
725	N	0.570857	0.890675	0.295274
726	C	0.54996	0.865825	0.300485
727	N	0.526672	0.862744	0.315789
728	C	0.524143	0.88398	0.326442
729	N	0.545429	0.908479	0.32133
730	C	0.552389	0.842615	0.622044
731	H	0.553941	0.842048	0.58583
732	H	0.534479	0.824597	0.299065
733	C	0.499061	0.881684	0.341771
734	H	0.49561	0.895222	0.654769
735	H	0.501499	0.888403	0.376331
736	C	0.591839	0.939127	0.29977
737	H	0.599556	0.940909	0.59935
738	H	0.607199	0.941644	0.32333
739	C	0.343815	0.450081	0.305758
740	N	0.320297	0.448133	0.295257
741	C	0.316334	0.469025	0.300462
742	N	0.336529	0.49231	0.3158
743	C	0.36029	0.494841	0.326494
744	N	0.36351	0.47356	0.321388
745	C	0.290703	0.4666	0.62198
746	H	0.288598	0.465037	0.585763
747	H	0.290597	0.484516	0.298965
748	C	0.383062	0.519923	0.341861
749	H	0.400073	0.523369	0.654926
750	H	0.387303	0.517486	0.376444
751	C	0.347777	0.427162	0.299798
752	H	0.341888	0.419469	0.599353
753	H	0.33491	0.411785	0.323311
754	C	0.106806	0.675239	0.305807
755	N	0.128379	0.698745	0.295278
756	C	0.15323	0.70269	0.300446
757	N	0.156309	0.682485	0.315775
758	C	0.135073	0.658736	0.326493
759	N	0.110577	0.655534	0.321421
760	C	0.176436	0.728316	0.621934
761	H	0.177001	0.730387	0.58571
762	H	0.194456	0.728443	0.298999
763	C	0.137358	0.635945	0.341835
764	H	0.123803	0.618952	0.654856
765	H	0.130651	0.63168	0.376401
766	C	0.079932	0.671302	0.299884
767	H	0.078131	0.677219	0.59946
768	H	0.077438	0.684165	0.323432
769	C	0.19859	0.443256	0.34604
770	C	0.215002	0.441748	0.379746
771	C	0.23974	0.444299	0.367153
772	C	0.245141	0.443248	0.654446
773	C	0.227196	0.441689	0.620743
774	C	0.205008	0.44424	0.633329
775	N	0.258275	0.447742	0.398461
776	H	0.256904	0.452046	0.429159
777	H	0.275454	0.450238	0.390258
778	N	0.206637	0.437191	0.423123
779	H	0.189103	0.433448	0.431517
780	H	0.215578	0.432717	0.44573
781	N	0.230993	0.43707	0.577403
782	H	0.244818	0.433407	0.568899
783	H	0.217591	0.432628	0.554768
784	N	0.189886	0.447641	0.602037
785	H	0.175096	0.449989	0.610128
786	H	0.195405	0.451735	0.57123
787	N	0.268764	0.443013	0.643901
788	H	0.264856	0.425648	0.628797
789	N	0.174747	0.443052	0.356578
790	H	0.161286	0.425702	0.371719
791	C	0.57575	0.773871	0.34609
792	C	0.5773	0.791808	0.379793
793	C	0.574764	0.814006	0.367213
794	C	0.575778	0.820439	0.654502
795	C	0.577299	0.804037	0.62079
796	C	0.574733	0.779291	0.633382
797	N	0.571375	0.829128	0.398531
798	H	0.567099	0.823472	0.429243
799	H	0.568898	0.843825	0.390338
800	N	0.581897	0.787998	0.423143
801	H	0.585543	0.774161	0.43165
802	H	0.586339	0.8014	0.44578
803	N	0.58186	0.812416	0.577416
804	H	0.585673	0.829968	0.569049
805	H	0.586471	0.803499	0.554962
806	N	0.571271	0.760743	0.602098
807	H	0.568908	0.7436	0.610195
808	H	0.567142	0.762162	0.571306
809	N	0.575986	0.844285	0.643961
810	H	0.593347	0.857753	0.628853
811	N	0.575951	0.75023	0.356628
812	H	0.5933	0.754117	0.371769
813	C	0.245129	0.820421	0.34608
814	C	0.227168	0.804005	0.379736
815	C	0.204973	0.779287	0.367087
816	C	0.198591	0.773892	0.654356
817	C	0.215029	0.791834	0.620696
818	C	0.23975	0.814022	0.633352
819	N	0.189802	0.760763	0.398355
820	H	0.195413	0.76212	0.429086
821	H	0.175099	0.743602	0.390114
822	N	0.230954	0.812376	0.423106
823	H	0.2448	0.829843	0.431667
824	H	0.217542	0.8034	0.44572
825	N	0.206675	0.788038	0.577316
826	H	0.189208	0.774201	0.568748
827	H	0.215666	0.801442	0.554695
828	N	0.258296	0.829175	0.602101
829	H	0.27546	0.84387	0.610325
830	H	0.256941	0.823524	0.57139
831	N	0.174754	0.750267	0.643734
832	H	0.161318	0.754168	0.62853
833	N	0.268753	0.844259	0.356695
834	H	0.264853	0.857705	0.371866
835	C	0.814382	0.581731	0.346023
836	C	0.797994	0.583257	0.379756
837	C	0.77325	0.580705	0.367207
838	C	0.76782	0.581743	0.654509
839	C	0.785744	0.58329	0.62078
840	C	0.807929	0.580723	0.633322
841	N	0.754724	0.577255	0.398525
842	H	0.756144	0.573137	0.429319
843	H	0.737582	0.574899	0.390434
844	N	0.806416	0.587857	0.423093
845	H	0.823915	0.591539	0.431574
846	H	0.797453	0.592278	0.44575
847	N	0.781938	0.587918	0.577449
848	H	0.768125	0.591608	0.568975
849	H	0.795332	0.592353	0.554802
850	N	0.82301	0.577295	0.601981
851	H	0.83774	0.574858	0.610125
852	H	0.817429	0.573125	0.57122
853	N	0.744185	0.581968	0.644007
854	H	0.748088	0.599333	0.62891
855	N	0.838243	0.581958	0.356522
856	H	0.851699	0.599319	0.371642
857	C	0.437243	0.251167	0.34604
858	C	0.435709	0.233234	0.379743
859	C	0.438256	0.211046	0.36715
860	C	0.437232	0.204609	0.654439
861	C	0.435702	0.221011	0.620736
862	C	0.438254	0.245749	0.633329
863	N	0.441669	0.195934	0.398461
864	H	0.445953	0.201596	0.429169
865	H	0.444161	0.181248	0.390258
866	N	0.431129	0.23703	0.423113
867	H	0.42739	0.250824	0.431504
868	H	0.426635	0.223606	0.44571
869	N	0.431108	0.212611	0.577386
870	H	0.427442	0.195123	0.568875
871	H	0.426686	0.221582	0.554745
872	N	0.441681	0.264285	0.602047
873	H	0.444029	0.281422	0.610148
874	H	0.445791	0.26287	0.571246
875	N	0.436999	0.180752	0.643891
876	H	0.419642	0.167304	0.628753
877	N	0.437044	0.274808	0.356585
878	H	0.419688	0.270921	0.371699
879	C	0.767849	0.204617	0.346053
880	C	0.785793	0.221005	0.379746
881	C	0.807986	0.245741	0.367157
882	C	0.814405	0.25116	0.654439
883	C	0.797992	0.233236	0.620736
884	C	0.773253	0.211055	0.633346
885	N	0.823116	0.264254	0.398468
886	H	0.817467	0.262872	0.429183
887	H	0.837807	0.281426	0.390268
888	N	0.781994	0.212601	0.423096
889	H	0.76816	0.195119	0.43161
890	H	0.7954	0.221563	0.445724
891	N	0.806358	0.237058	0.577352
892	H	0.823907	0.2508	0.568975
893	H	0.797437	0.223531	0.554902
894	N	0.754697	0.195968	0.602071
895	H	0.737557	0.181185	0.610178
896	H	0.756104	0.201515	0.571283
897	N	0.838252	0.274794	0.643887
898	H	0.851713	0.270897	0.628767
899	N	0.744213	0.180771	0.356602
900	H	0.748109	0.167312	0.371735
901	C	0.166612	0.568485	0.663877
902	C	0.166275	0.581589	0.623951
903	C	0.168096	0.606848	0.627126
904	C	0.166617	0.616671	0.336562
905	C	0.166292	0.603236	0.376488
906	C	0.168103	0.579792	0.373313
907	N	0.17129	0.621892	0.590058
908	H	0.175535	0.617677	0.561152
909	H	0.173531	0.639486	0.592143
910	N	0.163971	0.569724	0.583549
911	H	0.163211	0.552863	0.580661
912	H	0.160502	0.576233	0.556189
913	N	0.164002	0.612804	0.416893
914	H	0.163249	0.628908	0.419785
915	H	0.160535	0.602826	0.444253
916	N	0.171307	0.567941	0.410367
917	H	0.173536	0.552583	0.408303
918	H	0.175572	0.576421	0.439261
919	N	0.164441	0.639903	0.337416
920	H	0.178172	0.654479	0.357649
921	N	0.164414	0.543067	0.663026
922	H	0.178132	0.542208	0.642783
923	C	0.450482	0.616648	0.66396
924	C	0.437402	0.603226	0.624008
925	C	0.412163	0.579755	0.627143
926	C	0.40231	0.568451	0.336566
927	C	0.415709	0.581555	0.376518
928	C	0.439161	0.606806	0.37338
929	N	0.397148	0.567884	0.590065
930	H	0.401419	0.57619	0.561041
931	H	0.379608	0.552425	0.592039
932	N	0.449269	0.61284	0.583625
933	H	0.46612	0.628981	0.580777
934	H	0.442779	0.602921	0.556243
935	N	0.406092	0.569698	0.416907
936	H	0.389966	0.552836	0.419761
937	H	0.41601	0.576206	0.444293
938	N	0.450999	0.621837	0.410464
939	H	0.466401	0.639409	0.408426
940	H	0.442624	0.617598	0.439427
941	N	0.379088	0.543036	0.337386
942	H	0.364485	0.54218	0.357555
943	N	0.475895	0.639871	0.663156
944	H	0.476755	0.654467	0.64296
945	C	0.402349	0.852401	0.6639
946	C	0.415761	0.852696	0.623961
947	C	0.439205	0.850883	0.627126
948	C	0.450529	0.852391	0.336552
949	C	0.437445	0.852749	0.376491
950	C	0.4122	0.850962	0.373333
951	N	0.451032	0.847656	0.590055
952	H	0.442554	0.843386	0.561162
953	H	0.466384	0.845415	0.592136
954	N	0.406172	0.854948	0.583555
955	H	0.39009	0.855737	0.580701
956	H	0.416157	0.858436	0.556189
957	N	0.449317	0.855027	0.416877
958	H	0.466156	0.855751	0.419745
959	H	0.442811	0.858472	0.44427
960	N	0.39717	0.847814	0.410394
961	H	0.379637	0.845732	0.408429
962	H	0.401452	0.843777	0.439424
963	N	0.475947	0.854591	0.337373
964	H	0.476814	0.84087	0.357599
965	N	0.379112	0.854569	0.663053
966	H	0.364528	0.840825	0.64285
967	C	0.84638	0.456545	0.663897
968	C	0.846712	0.443449	0.623958
969	C	0.844887	0.418188	0.627113
970	C	0.846355	0.408351	0.336542
971	C	0.846667	0.421769	0.376484
972	C	0.844876	0.445224	0.37332
973	N	0.841696	0.403154	0.590035
974	H	0.837458	0.407377	0.561128
975	H	0.839449	0.385558	0.592106
976	N	0.849016	0.455324	0.583565
977	H	0.849774	0.472183	0.580687
978	H	0.852479	0.448817	0.556196
979	N	0.848898	0.412159	0.416887
980	H	0.849708	0.396087	0.419731
981	H	0.852437	0.422174	0.444223
982	N	0.84166	0.457067	0.41037
983	H	0.839567	0.472513	0.408396
984	H	0.837561	0.44871	0.439367
985	N	0.848542	0.385127	0.337373
986	H	0.834813	0.370539	0.357589
987	N	0.848585	0.481965	0.663066
988	H	0.834871	0.482836	0.642827
989	C	0.56249	0.408353	0.663917
990	C	0.575582	0.421783	0.623978
991	C	0.600831	0.445234	0.627133
992	C	0.610649	0.456559	0.336559
993	C	0.597228	0.443455	0.376498
994	C	0.573801	0.418186	0.373343
995	N	0.61587	0.457079	0.590058
996	H	0.611662	0.448607	0.561162
997	H	0.633458	0.47244	0.592133
998	N	0.563715	0.412202	0.583585
999	H	0.546864	0.396093	0.580707
1000	H	0.570217	0.422174	0.556216
1001	N	0.606791	0.455332	0.41689
1002	H	0.622881	0.472203	0.419768
1003	H	0.596819	0.448821	0.444256
1004	N	0.561966	0.403138	0.410414
1005	H	0.546622	0.38554	0.408359
1006	H	0.570452	0.407367	0.439301
1007	N	0.633857	0.481983	0.337389
1008	H	0.648442	0.48286	0.357632
1009	N	0.537075	0.385133	0.663093
1010	H	0.536209	0.370549	0.64286
1011	C	0.61062	0.172621	0.663947
1012	C	0.597203	0.172286	0.623991
1013	C	0.573733	0.174053	0.627126
1014	C	0.562424	0.172593	0.336546
1015	C	0.575521	0.172289	0.376501
1016	C	0.600772	0.174088	0.373366
1017	N	0.561864	0.177205	0.590048
1018	H	0.570181	0.181248	0.561021
1019	H	0.546411	0.179283	0.592019
1020	N	0.606828	0.170044	0.583612
1021	H	0.622953	0.169336	0.580761
1022	H	0.596899	0.166619	0.556203
1023	N	0.563656	0.17004	0.416883
1024	H	0.546811	0.169304	0.419741
1025	H	0.570169	0.166621	0.444293
1026	N	0.615799	0.177272	0.410454
1027	H	0.633368	0.179442	0.408423
1028	H	0.611554	0.181402	0.439427
1029	N	0.537011	0.170407	0.337366
1030	H	0.536157	0.184152	0.357545
1031	N	0.63385	0.170438	0.66314
1032	H	0.648447	0.184182	0.642957
1033	C	0.033151	0.415679	0.347124
1034	C	0.985987	0.392121	0.366496
1035	C	0.979838	0.388989	0.653465
1036	C	3.3e-05	0.397413	0.620506
1037	C	0.026998	0.412641	0.634089
1038	N	0.966091	0.384797	0.397047
1039	H	0.969469	0.389417	0.428282
1040	H	0.947707	0.377037	0.38832
1041	N	0.019846	0.404652	0.42388
1042	H	0.03809	0.411898	0.432948
1043	N	0.993115	0.39133	0.576712
1044	H	0.974881	0.380416	0.567545
1045	N	0.046909	0.425237	0.603578
1046	H	0.065303	0.435798	0.612282
1047	H	0.043577	0.42637	0.572283
1048	N	0.953617	0.381766	0.640899
1049	H	0.952881	0.394642	0.618342
1050	N	0.05937	0.434646	0.359743
1051	H	0.06011	0.448246	0.382337
1052	C	0.603335	0.636038	0.346947
1053	C	0.615139	0.627643	0.379886
1054	C	0.62685	0.612391	0.366276
1055	C	0.629936	0.609342	0.653238
1056	C	0.621539	0.621151	0.620299
1057	C	0.606312	0.632888	0.633909
1058	N	0.634172	0.599803	0.396794
1059	H	0.629592	0.598584	0.428045
1060	H	0.641892	0.589147	0.388036
1061	N	0.614374	0.633767	0.423677
1062	H	0.60708	0.644703	0.432861
1063	H	0.624559	0.631135	0.446461
1064	N	0.627598	0.620329	0.576482
1065	H	0.63865	0.61315	0.567404
1066	H	0.625138	0.630712	0.553861
1067	N	0.593674	0.64016	0.603415
1068	H	0.583112	0.647991	0.612129
1069	H	0.59248	0.635621	0.57214
1070	N	0.63719	0.590379	0.640596
1071	H	0.624334	0.576779	0.618002
1072	N	0.584353	0.643268	0.359596
1073	H	0.570765	0.630404	0.382197
1074	C	0.382931	0.985829	0.347034
1075	C	0.391337	0.006017	0.379999
1076	C	0.406563	0.032988	0.36644
1077	C	0.409582	0.03914	0.653408
1078	C	0.397815	0.018957	0.620429
1079	C	0.386077	0.991985	0.633999
1080	N	0.41913	0.052889	0.396981
1081	H	0.42036	0.04952	0.428222
1082	H	0.429753	0.071273	0.388247
1083	N	0.385235	0.999095	0.42379
1084	H	0.374321	0.980859	0.432951
1085	H	0.387876	0.011896	0.446611
1086	N	0.398629	0.025874	0.576642
1087	H	0.40594	0.044109	0.567481
1088	H	0.388468	0.013071	0.553825
1089	N	0.378768	0.972089	0.603455
1090	H	0.371003	0.953703	0.612169
1091	H	0.383391	0.975472	0.57222
1092	N	0.428571	0.06536	0.640809
1093	H	0.442184	0.066099	0.618248
1094	N	0.375709	0.959608	0.359596
1095	H	0.388581	0.958874	0.382167
1096	C	0.979877	0.609409	0.347117
1097	C	6.4e-05	0.621165	0.380093
1098	C	0.027034	0.632933	0.366523
1099	C	0.033184	0.636087	0.653492
1100	C	0.986033	0.612462	0.634083
1101	N	0.046943	0.640259	0.397041
1102	H	0.04362	0.635783	0.428329
1103	H	0.065343	0.648128	0.388327
1104	N	0.993134	0.620278	0.423893
1105	H	0.974898	0.612936	0.433054
1106	N	0.019923	0.633809	0.576732
1107	H	0.038156	0.644723	0.567571
1108	N	0.966133	0.599906	0.603535
1109	H	0.947739	0.589319	0.612246
1110	H	0.96948	0.598736	0.57226
1111	N	0.059403	0.643316	0.640882
1112	H	0.060134	0.630441	0.618318
1113	N	0.953653	0.590396	0.359656
1114	H	0.952918	0.576765	0.38217
1115	C	0.4097	0.389042	0.34711
1116	C	0.397865	0.397409	0.380049
1117	C	0.386121	0.412631	0.366453
1118	C	0.383001	0.415649	0.653415
1119	C	0.391444	0.403889	0.62047
1120	C	0.406679	0.39216	0.634076
1121	N	0.37878	0.425196	0.396991
1122	H	0.38339	0.426437	0.428229
1123	H	0.371014	0.435814	0.388253
1124	N	0.398644	0.391309	0.423857
1125	H	0.405897	0.380317	0.432941
1126	H	0.388372	0.393836	0.446594
1127	N	0.385374	0.404723	0.576669
1128	H	0.37445	0.412033	0.567491
1129	H	0.388052	0.394593	0.553845
1130	N	0.419291	0.384856	0.603578
1131	H	0.429859	0.377033	0.612299
1132	H	0.420434	0.389326	0.572283
1133	N	0.375766	0.434636	0.640836
1134	H	0.388645	0.448255	0.618288
1135	N	0.428664	0.381789	0.359756
1136	H	0.442255	0.394644	0.38236
1137	C	0.630041	0.039178	0.346987
1138	C	0.621643	0.018987	0.379946
1139	C	0.60639	0.992021	0.36636
1140	C	0.603337	0.985871	0.653325
1141	C	0.615149	0.006069	0.620369
1142	C	0.626889	0.033036	0.633956
1143	N	0.593802	0.972119	0.396891
1144	H	0.592586	0.97549	0.428139
1145	H	0.583146	0.95374	0.38815
1146	N	0.627769	0.02589	0.423733
1147	H	0.638706	0.044123	0.432901
1148	H	0.625134	0.013079	0.446527
1149	N	0.614324	0.999174	0.576555
1150	H	0.607135	0.98094	0.567495
1151	H	0.624707	0.01201	0.553931
1152	N	0.634163	0.052937	0.603441
1153	H	0.641999	0.071334	0.612142
1154	H	0.629626	0.049586	0.57217
1155	N	0.584368	0.959651	0.640702
1156	H	0.570773	0.95891	0.618105
1157	N	0.637268	0.065393	0.359613
1158	H	0.624404	0.06612	0.382207
1159	C	0.106772	0.450113	0.028051
1160	N	0.128351	0.448176	0.705199
1161	C	0.1532	0.469076	0.69998
1162	N	0.156273	0.492357	0.684656
1163	C	0.135033	0.494877	0.673985
1164	N	0.110539	0.473588	0.679104
1165	C	0.176415	0.466661	0.711776
1166	H	0.176988	0.465134	0.747996
1167	H	0.194429	0.484565	0.034726
1168	C	0.137322	0.519952	0.658638
1169	H	0.123781	0.523403	0.678967
1170	H	0.130603	0.517506	0.957412
1171	C	0.079899	0.427182	0.700691
1172	H	0.078118	0.419471	0.73445
1173	H	0.077383	0.411817	0.010475
1174	C	0.568876	0.675195	0.028006
1175	N	0.570818	0.69871	0.705173
1176	C	0.549914	0.702658	0.700014
1177	N	0.526621	0.682448	0.684723
1178	C	0.524096	0.658688	0.674035
1179	N	0.545389	0.655485	0.679097
1180	C	0.552339	0.728291	0.711823
1181	H	0.553871	0.730385	0.748043
1182	H	0.534437	0.728409	0.034785
1183	C	0.499013	0.635901	0.658721
1184	H	0.495573	0.61891	0.679044
1185	H	0.501442	0.631627	0.957485
1186	C	0.591814	0.671259	0.700574
1187	H	0.599548	0.677185	0.73432
1188	H	0.60716	0.684112	0.010333
1189	C	0.343782	0.912208	0.028007
1190	N	0.320274	0.890636	0.705206
1191	C	0.316324	0.865784	0.70003
1192	N	0.336525	0.862701	0.68469
1193	C	0.360277	0.883937	0.673968
1194	N	0.363482	0.908433	0.679047
1195	C	0.290695	0.842582	0.711869
1196	H	0.288612	0.842024	0.748093
1197	H	0.290572	0.824559	0.034831
1198	C	0.383061	0.881648	0.658604
1199	H	0.400065	0.895217	0.678887
1200	H	0.387306	0.888338	0.957362
1201	C	0.347722	0.939083	0.700601
1202	H	0.34181	0.940886	0.734363
1203	H	0.33486	0.941579	0.010389
1204	C	0.906247	0.574917	0.028071
1205	N	0.884668	0.576858	0.705199
1206	C	0.859819	0.55596	0.69997
1207	N	0.856745	0.532677	0.684656
1208	C	0.877983	0.530153	0.674005
1209	N	0.902479	0.551438	0.679134
1210	C	0.836598	0.558369	0.711753
1211	H	0.836033	0.559908	0.74797
1212	H	0.818587	0.540453	0.034727
1213	C	0.875685	0.505072	0.658678
1214	H	0.889217	0.501616	0.67902
1215	H	0.882408	0.507511	0.957455
1216	C	0.933122	0.597845	0.700721
1217	H	0.934918	0.60552	0.73451
1218	H	0.935624	0.613231	0.010566
1219	C	0.444121	0.349847	0.028084
1220	N	0.442177	0.326329	0.705233
1221	C	0.463073	0.322372	0.70003
1222	N	0.486358	0.342577	0.68471
1223	C	0.488884	0.366338	0.674038
1224	N	0.467599	0.369551	0.679144
1225	C	0.460646	0.296738	0.711819
1226	H	0.4591	0.294625	0.748036
1227	H	0.478552	0.296625	0.03479
1228	C	0.513965	0.389119	0.658691
1229	H	0.517419	0.406114	0.679017
1230	H	0.511523	0.393391	0.957465
1231	C	0.421192	0.353793	0.700707
1232	H	0.413475	0.347865	0.734463
1233	H	0.405832	0.340948	0.010481
1234	C	0.669189	0.112798	0.028007
1235	N	0.692701	0.134374	0.705176
1236	C	0.696642	0.159224	0.700014
1237	N	0.676432	0.162301	0.684716
1238	C	0.652674	0.141062	0.674035
1239	N	0.649477	0.116568	0.679091
1240	C	0.722275	0.182436	0.711816
1241	H	0.724375	0.182998	0.748036
1242	H	0.722384	0.200453	0.034787
1243	C	0.629888	0.143355	0.658691
1244	H	0.612891	0.129793	0.678987
1245	H	0.625632	0.136662	0.957452
1246	C	0.665259	0.085925	0.700581
1247	H	0.671188	0.084123	0.73433
1248	H	0.678111	0.083433	0.010341
1249	C	0.444044	0.112762	0.639108
1250	N	0.442106	0.134339	0.628617
1251	C	0.463009	0.159189	0.633812
1252	N	0.486294	0.162264	0.649126
1253	C	0.488813	0.141026	0.659801
1254	N	0.467521	0.116531	0.654712
1255	C	0.460597	0.182404	0.955341
1256	H	0.459057	0.182962	0.91912
1257	H	0.478508	0.200418	0.632362
1258	C	0.51389	0.143322	0.675159
1259	H	0.517331	0.129759	0.988206
1260	H	0.511452	0.136636	0.709735
1261	C	0.42111	0.085888	0.633159
1262	H	0.4134	0.084094	0.93273
1263	H	0.405747	0.083384	0.6567
1264	C	0.669136	0.574923	0.638998
1265	N	0.692664	0.57687	0.62857
1266	C	0.696618	0.555974	0.633826
1267	N	0.676406	0.532693	0.64914
1268	C	0.652638	0.530165	0.659761
1269	N	0.649427	0.551448	0.654606
1270	C	0.722251	0.558383	0.955411
1271	H	0.724374	0.559932	0.919197
1272	H	0.72234	0.540465	0.632438
1273	C	0.629856	0.505084	0.675095
1274	H	0.612868	0.501622	0.988076
1275	H	0.625568	0.507526	0.709645
1276	C	0.665186	0.597849	0.632992
1277	H	0.671112	0.605546	0.932557
1278	H	0.678033	0.613223	0.656527
1279	C	0.906215	0.349831	0.639125
1280	N	0.884645	0.326315	0.628623
1281	C	0.859792	0.32236	0.633796
1282	N	0.856703	0.342563	0.649103
1283	C	0.877936	0.366322	0.659798
1284	N	0.902435	0.369533	0.654722
1285	C	0.836586	0.296726	0.955318
1286	H	0.836035	0.294623	0.9191
1287	H	0.818563	0.296613	0.632325
1288	C	0.875634	0.389105	0.675132
1289	H	0.889181	0.406098	0.988146
1290	H	0.882341	0.393376	0.709695
1291	C	0.933093	0.353779	0.633206
1292	H	0.934903	0.347877	0.932777
1293	H	0.935588	0.340913	0.656743
1294	C	0.56891	0.912251	0.639068
1295	N	0.570857	0.890675	0.628607
1296	C	0.54996	0.865825	0.633819
1297	N	0.526672	0.862744	0.649123
1298	C	0.524143	0.88398	0.659775
1299	N	0.545429	0.908479	0.654662
1300	C	0.552389	0.842615	0.955378
1301	H	0.553941	0.842048	0.919164
1302	H	0.534479	0.824597	0.632398
1303	C	0.499061	0.881684	0.675105
1304	H	0.49561	0.895222	0.988103
1305	H	0.501499	0.888403	0.709665
1306	C	0.591839	0.939127	0.633102
1307	H	0.599556	0.940909	0.932684
1308	H	0.607199	0.941644	0.656663
1309	C	0.343815	0.450081	0.639092
1310	N	0.320297	0.448133	0.62859
1311	C	0.316334	0.469025	0.633796
1312	N	0.336529	0.49231	0.649133
1313	C	0.36029	0.494841	0.659828
1314	N	0.36351	0.47356	0.654722
1315	C	0.290703	0.4666	0.955314
1316	H	0.288598	0.465037	0.919097
1317	H	0.290597	0.484516	0.632298
1318	C	0.383062	0.519923	0.675195
1319	H	0.400073	0.523369	0.98826
1320	H	0.387303	0.517486	0.709778
1321	C	0.347777	0.427162	0.633132
1322	H	0.341888	0.419469	0.932687
1323	H	0.33491	0.411785	0.656643
1324	C	0.106806	0.675239	0.639142
1325	N	0.128379	0.698745	0.62861
1326	C	0.15323	0.70269	0.633779
1327	N	0.156309	0.682485	0.64911
1328	C	0.135073	0.658736	0.659828
1329	N	0.110577	0.655534	0.654756
1330	C	0.176436	0.728316	0.955268
1331	H	0.177001	0.730387	0.919044
1332	H	0.194456	0.728443	0.632332
1333	C	0.137358	0.635945	0.675169
1334	H	0.123803	0.618952	0.98819
1335	H	0.130651	0.63168	0.709735
1336	C	0.079932	0.671302	0.633219
1337	H	0.078131	0.677219	0.932794
1338	H	0.077438	0.684165	0.656767
1339	C	0.19859	0.443256	0.679374
1340	C	0.215002	0.441748	0.71308
1341	C	0.23974	0.444299	0.700487
1342	C	0.245141	0.443248	0.98778
1343	C	0.227196	0.441689	0.954077
1344	C	0.205008	0.44424	0.966663
1345	N	0.258275	0.447742	0.731795
1346	H	0.256904	0.452046	0.762493
1347	H	0.275454	0.450238	0.723592
1348	N	0.206637	0.437191	0.756457
1349	H	0.189103	0.433448	0.764851
1350	H	0.215578	0.432717	0.779064
1351	N	0.230993	0.43707	0.910737
1352	H	0.244818	0.433407	0.902232
1353	H	0.217591	0.432628	0.888102
1354	N	0.189886	0.447641	0.935371
1355	H	0.175096	0.449989	0.943462
1356	H	0.195405	0.451735	0.904564
1357	N	0.268764	0.443013	0.977235
1358	H	0.264856	0.425648	0.962131
1359	N	0.174747	0.443052	0.689912
1360	H	0.161286	0.425702	0.705053
1361	C	0.57575	0.773871	0.679424
1362	C	0.5773	0.791808	0.713127
1363	C	0.574764	0.814006	0.700547
1364	C	0.575778	0.820439	0.987836
1365	C	0.577299	0.804037	0.954124
1366	C	0.574733	0.779291	0.966716
1367	N	0.571375	0.829128	0.731865
1368	H	0.567099	0.823472	0.762577
1369	H	0.568898	0.843825	0.723672
1370	N	0.581897	0.787998	0.756477
1371	H	0.585543	0.774161	0.764984
1372	H	0.586339	0.8014	0.779114
1373	N	0.58186	0.812416	0.91075
1374	H	0.585673	0.829968	0.902383
1375	H	0.586471	0.803499	0.888296
1376	N	0.571271	0.760743	0.935431
1377	H	0.568908	0.7436	0.943529
1378	H	0.567142	0.762162	0.90464
1379	N	0.575986	0.844285	0.977295
1380	H	0.593347	0.857753	0.962187
1381	N	0.575951	0.75023	0.689962
1382	H	0.5933	0.754117	0.705103
1383	C	0.245129	0.820421	0.679414
1384	C	0.227168	0.804005	0.71307
1385	C	0.204973	0.779287	0.700421
1386	C	0.198591	0.773892	0.987689
1387	C	0.215029	0.791834	0.95403
1388	C	0.23975	0.814022	0.966686
1389	N	0.189802	0.760763	0.731689
1390	H	0.195413	0.76212	0.76242
1391	H	0.175099	0.743602	0.723448
1392	N	0.230954	0.812376	0.75644
1393	H	0.2448	0.829843	0.765001
1394	H	0.217542	0.8034	0.779054
1395	N	0.206675	0.788038	0.91065
1396	H	0.189208	0.774201	0.902082
1397	H	0.215666	0.801442	0.888029
1398	N	0.258296	0.829175	0.935435
1399	H	0.27546	0.84387	0.943655
1400	H	0.256941	0.823524	0.904724
1401	N	0.174754	0.750267	0.977068
1402	H	0.161318	0.754168	0.961864
1403	N	0.268753	0.844259	0.690029
1404	H	0.264853	0.857705	0.705199
1405	C	0.814382	0.581731	0.679357
1406	C	0.797994	0.583257	0.71309
1407	C	0.77325	0.580705	0.700541
1408	C	0.76782	0.581743	0.987843
1409	C	0.785744	0.58329	0.954114
1410	C	0.807929	0.580723	0.966656
1411	N	0.754724	0.577255	0.731859
1412	H	0.756144	0.573137	0.762653
1413	H	0.737582	0.574899	0.723768
1414	N	0.806416	0.587857	0.756427
1415	H	0.823915	0.591539	0.764908
1416	H	0.797453	0.592278	0.779084
1417	N	0.781938	0.587918	0.910783
1418	H	0.768125	0.591608	0.902309
1419	H	0.795332	0.592353	0.888136
1420	N	0.82301	0.577295	0.935315
1421	H	0.83774	0.574858	0.943459
1422	H	0.817429	0.573125	0.904554
1423	N	0.744185	0.581968	0.977341
1424	H	0.748088	0.599333	0.962244
1425	N	0.838243	0.581958	0.689856
1426	H	0.851699	0.599319	0.704976
1427	C	0.437243	0.251167	0.679374
1428	C	0.435709	0.233234	0.713077
1429	C	0.438256	0.211046	0.700484
1430	C	0.437232	0.204609	0.987773
1431	C	0.435702	0.221011	0.95407
1432	C	0.438254	0.245749	0.966663
1433	N	0.441669	0.195934	0.731795
1434	H	0.445953	0.201596	0.762503
1435	H	0.444161	0.181248	0.723592
1436	N	0.431129	0.23703	0.756447
1437	H	0.42739	0.250824	0.764838
1438	H	0.426635	0.223606	0.779044
1439	N	0.431108	0.212611	0.91072
1440	H	0.427442	0.195123	0.902206
1441	H	0.426686	0.221582	0.888079
1442	N	0.441681	0.264285	0.935381
1443	H	0.444029	0.281422	0.943482
1444	H	0.445791	0.26287	0.90458
1445	N	0.436999	0.180752	0.977225
1446	H	0.419642	0.167304	0.962087
1447	N	0.437044	0.274808	0.689919
1448	H	0.419688	0.270921	0.705033
1449	C	0.767849	0.204617	0.679387
1450	C	0.785793	0.221005	0.71308
1451	C	0.807986	0.245741	0.700491
1452	C	0.814405	0.25116	0.987773
1453	C	0.797992	0.233236	0.95407
1454	C	0.773253	0.211055	0.96668
1455	N	0.823116	0.264254	0.731802
1456	H	0.817467	0.262872	0.762517
1457	H	0.837807	0.281426	0.723602
1458	N	0.781994	0.212601	0.75643
1459	H	0.76816	0.195119	0.764944
1460	H	0.7954	0.221563	0.779058
1461	N	0.806358	0.237058	0.910686
1462	H	0.823907	0.2508	0.902309
1463	H	0.797437	0.223531	0.888236
1464	N	0.754697	0.195968	0.935405
1465	H	0.737557	0.181185	0.943512
1466	H	0.756104	0.201515	0.904617
1467	N	0.838252	0.274794	0.977221
1468	H	0.851713	0.270897	0.962101
1469	N	0.744213	0.180771	0.689936
1470	H	0.748109	0.167312	0.705069
1471	C	0.166612	0.568485	0.997211
1472	C	0.166275	0.581589	0.957285
1473	C	0.168096	0.606848	0.96046
1474	C	0.166617	0.616671	0.669896
1475	C	0.166292	0.603236	0.709822
1476	C	0.168103	0.579792	0.706647
1477	N	0.17129	0.621892	0.923392
1478	H	0.175535	0.617677	0.894486
1479	H	0.173531	0.639486	0.925477
1480	N	0.163971	0.569724	0.916883
1481	H	0.163211	0.552863	0.913995
1482	H	0.160502	0.576233	0.889523
1483	N	0.164002	0.612804	0.750224
1484	H	0.163249	0.628908	0.753119
1485	H	0.160535	0.602826	0.777587
1486	N	0.171307	0.567941	0.743701
1487	H	0.173536	0.552583	0.741637
1488	H	0.175572	0.576421	0.772595
1489	N	0.164441	0.639903	0.67075
1490	H	0.178172	0.654479	0.690983
1491	N	0.164414	0.543067	0.99636
1492	H	0.178132	0.542208	0.976117
1493	C	0.450482	0.616648	0.997294
1494	C	0.437402	0.603226	0.957342
1495	C	0.412163	0.579755	0.960477
1496	C	0.40231	0.568451	0.6699
1497	C	0.415709	0.581555	0.709852
1498	C	0.439161	0.606806	0.706714
1499	N	0.397148	0.567884	0.923396
1500	H	0.401419	0.57619	0.894375
1501	H	0.379608	0.552425	0.925373
1502	N	0.449269	0.61284	0.916959
1503	H	0.46612	0.628981	0.914108
1504	H	0.442779	0.602921	0.889573
1505	N	0.406092	0.569698	0.750241
1506	H	0.389966	0.552836	0.753095
1507	H	0.41601	0.576206	0.777627
1508	N	0.450999	0.621837	0.743798
1509	H	0.466401	0.639409	0.74176
1510	H	0.442624	0.617598	0.772761
1511	N	0.379088	0.543036	0.670717
1512	H	0.364485	0.54218	0.690889
1513	N	0.475895	0.639871	0.99649
1514	H	0.476755	0.654467	0.976291
1515	C	0.402349	0.852401	0.997234
1516	C	0.415761	0.852696	0.957295
1517	C	0.439205	0.850883	0.96046
1518	C	0.450529	0.852391	0.669886
1519	C	0.437445	0.852749	0.709825
1520	C	0.4122	0.850962	0.706667
1521	N	0.451032	0.847656	0.923389
1522	H	0.442554	0.843386	0.894496
1523	H	0.466384	0.845415	0.92547
1524	N	0.406172	0.854948	0.916889
1525	H	0.39009	0.855737	0.914035
1526	H	0.416157	0.858436	0.889523
1527	N	0.449317	0.855027	0.750211
1528	H	0.466156	0.855751	0.753079
1529	H	0.442811	0.858472	0.777604
1530	N	0.39717	0.847814	0.743728
1531	H	0.379637	0.845732	0.741763
1532	H	0.401452	0.843777	0.772758
1533	N	0.475947	0.854591	0.670707
1534	H	0.476814	0.84087	0.690929
1535	N	0.379112	0.854569	0.996387
1536	H	0.364528	0.840825	0.976184
1537	C	0.84638	0.456545	0.997231
1538	C	0.846712	0.443449	0.957292
1539	C	0.844887	0.418188	0.960447
1540	C	0.846355	0.408351	0.669876
1541	C	0.846667	0.421769	0.709818
1542	C	0.844876	0.445224	0.706654
1543	N	0.841696	0.403154	0.923369
1544	H	0.837458	0.407377	0.894462
1545	H	0.839449	0.385558	0.92544
1546	N	0.849016	0.455324	0.916899
1547	H	0.849774	0.472183	0.914021
1548	H	0.852479	0.448817	0.88953
1549	N	0.848898	0.412159	0.750221
1550	H	0.849708	0.396087	0.753065
1551	H	0.852437	0.422174	0.777557
1552	N	0.84166	0.457067	0.743704
1553	H	0.839567	0.472513	0.74173
1554	H	0.837561	0.44871	0.772701
1555	N	0.848542	0.385127	0.670707
1556	H	0.834813	0.370539	0.690923
1557	N	0.848585	0.481965	0.9964
1558	H	0.834871	0.482836	0.976161
1559	C	0.56249	0.408353	0.997251
1560	C	0.575582	0.421783	0.957312
1561	C	0.600831	0.445234	0.960467
1562	C	0.610649	0.456559	0.669893
1563	C	0.597228	0.443455	0.709832
1564	C	0.573801	0.418186	0.706677
1565	N	0.61587	0.457079	0.923392
1566	H	0.611662	0.448607	0.894496
1567	H	0.633458	0.47244	0.925467
1568	N	0.563715	0.412202	0.916919
1569	H	0.546864	0.396093	0.914041
1570	H	0.570217	0.422174	0.88955
1571	N	0.606791	0.455332	0.750224
1572	H	0.622881	0.472203	0.753102
1573	H	0.596819	0.448821	0.77759
1574	N	0.561966	0.403138	0.743748
1575	H	0.546622	0.38554	0.741693
1576	H	0.570452	0.407367	0.772635
1577	N	0.633857	0.481983	0.670723
1578	H	0.648442	0.48286	0.690966
1579	N	0.537075	0.385133	0.996427
1580	H	0.536209	0.370549	0.976194
1581	C	0.61062	0.172621	0.997281
1582	C	0.597203	0.172286	0.957325
1583	C	0.573733	0.174053	0.96046
1584	C	0.562424	0.172593	0.669879
1585	C	0.575521	0.172289	0.709835
1586	C	0.600772	0.174088	0.7067
1587	N	0.561864	0.177205	0.923382
1588	H	0.570181	0.181248	0.894355
1589	H	0.546411	0.179283	0.925353
1590	N	0.606828	0.170044	0.916946
1591	H	0.622953	0.169336	0.914095
1592	H	0.596899	0.166619	0.889533
1593	N	0.563656	0.17004	0.750217
1594	H	0.546811	0.169304	0.753075
1595	H	0.570169	0.166621	0.777627
1596	N	0.615799	0.177272	0.743788
1597	H	0.633368	0.179442	0.741753
1598	H	0.611554	0.181402	0.772761
1599	N	0.537011	0.170407	0.6707
1600	H	0.536157	0.184152	0.690879
1601	N	0.63385	0.170438	0.996474
1602	H	0.648447	0.184182	0.976291
1603	C	0.033151	0.415679	0.680454
1604	C	0.985987	0.392121	0.69983
1605	C	0.979838	0.388989	0.986796
1606	C	3.3e-05	0.397413	0.95384
1607	C	0.026998	0.412641	0.967423
1608	N	0.966091	0.384797	0.730378
1609	H	0.969469	0.389417	0.761616
1610	H	0.947707	0.377037	0.721654
1611	N	0.019846	0.404652	0.757214
1612	H	0.03809	0.411898	0.766282
1613	N	0.993115	0.39133	0.910046
1614	H	0.974881	0.380416	0.900879
1615	N	0.046909	0.425237	0.936912
1616	H	0.065303	0.435798	0.945616
1617	H	0.043577	0.42637	0.905617
1618	N	0.953617	0.381766	0.974233
1619	H	0.952881	0.394642	0.951676
1620	N	0.05937	0.434646	0.693077
1621	H	0.06011	0.448246	0.715671
1622	C	0.603335	0.636038	0.680278
1623	C	0.615139	0.627643	0.71322
1624	C	0.62685	0.612391	0.69961
1625	C	0.629936	0.609342	0.986572
1626	C	0.621539	0.621151	0.953633
1627	C	0.606312	0.632888	0.967243
1628	N	0.634172	0.599803	0.730128
1629	H	0.629592	0.598584	0.761379
1630	H	0.641892	0.589147	0.72137
1631	N	0.614374	0.633767	0.757011
1632	H	0.60708	0.644703	0.766195
1633	H	0.624559	0.631135	0.779795
1634	N	0.627598	0.620329	0.909816
1635	H	0.63865	0.61315	0.900738
1636	H	0.625138	0.630712	0.887195
1637	N	0.593674	0.64016	0.936745
1638	H	0.583112	0.647991	0.945463
1639	H	0.59248	0.635621	0.905474
1640	N	0.63719	0.590379	0.97393
1641	H	0.624334	0.576779	0.951336
1642	N	0.584353	0.643268	0.69293
1643	H	0.570765	0.630404	0.715531
1644	C	0.382931	0.985829	0.680368
1645	C	0.391337	0.006017	0.713333
1646	C	0.406563	0.032988	0.699774
1647	C	0.409582	0.03914	0.986742
1648	C	0.397815	0.018957	0.953763
1649	C	0.386077	0.991985	0.967333
1650	N	0.41913	0.052889	0.730315
1651	H	0.42036	0.04952	0.761556
1652	H	0.429753	0.071273	0.721581
1653	N	0.385235	0.999095	0.757124
1654	H	0.374321	0.980859	0.766285
1655	H	0.387876	0.011896	0.779945
1656	N	0.398629	0.025874	0.909976
1657	H	0.40594	0.044109	0.900815
1658	H	0.388468	0.013071	0.887159
1659	N	0.378768	0.972089	0.936789
1660	H	0.371003	0.953703	0.945503
1661	H	0.383391	0.975472	0.905554
1662	N	0.428571	0.06536	0.974143
1663	H	0.442184	0.066099	0.951582
1664	N	0.375709	0.959608	0.69293
1665	H	0.388581	0.958874	0.715501
1666	C	0.979877	0.609409	0.680451
1667	C	6.4e-05	0.621165	0.713427
1668	C	0.027034	0.632933	0.699857
1669	C	0.033184	0.636087	0.986826
1670	C	0.986033	0.612462	0.967417
1671	N	0.046943	0.640259	0.730375
1672	H	0.04362	0.635783	0.761663
1673	H	0.065343	0.648128	0.721661
1674	N	0.993134	0.620278	0.757227
1675	H	0.974898	0.612936	0.766388
1676	N	0.019923	0.633809	0.910063
1677	H	0.038156	0.644723	0.900905
1678	N	0.966133	0.599906	0.936869
1679	H	0.947739	0.589319	0.94558
1680	H	0.96948	0.598736	0.905594
1681	N	0.059403	0.643316	0.974216
1682	H	0.060134	0.630441	0.951652
1683	N	0.953653	0.590396	0.69299
1684	H	0.952918	0.576765	0.715504
1685	C	0.4097	0.389042	0.680444
1686	C	0.397865	0.397409	0.713383
1687	C	0.386121	0.412631	0.699787
1688	C	0.383001	0.415649	0.986749
1689	C	0.391444	0.403889	0.953803
1690	C	0.406679	0.39216	0.96741
1691	N	0.37878	0.425196	0.730325
1692	H	0.38339	0.426437	0.761563
1693	H	0.371014	0.435814	0.721587
1694	N	0.398644	0.391309	0.757191
1695	H	0.405897	0.380317	0.766275
1696	H	0.388372	0.393836	0.779928
1697	N	0.385374	0.404723	0.910003
1698	H	0.37445	0.412033	0.900825
1699	H	0.388052	0.394593	0.887175
1700	N	0.419291	0.384856	0.936912
1701	H	0.429859	0.377033	0.945633
1702	H	0.420434	0.389326	0.905617
1703	N	0.375766	0.434636	0.97417
1704	H	0.388645	0.448255	0.951622
1705	N	0.428664	0.381789	0.69309
1706	H	0.442255	0.394644	0.715694
1707	C	0.630041	0.039178	0.680321
1708	C	0.621643	0.018987	0.71328
1709	C	0.60639	0.992021	0.699694
1710	C	0.603337	0.985871	0.986656
1711	C	0.615149	0.006069	0.953703
1712	C	0.626889	0.033036	0.96729
1713	N	0.593802	0.972119	0.730225
1714	H	0.592586	0.97549	0.761473
1715	H	0.583146	0.95374	0.721484
1716	N	0.627769	0.02589	0.757067
1717	H	0.638706	0.044123	0.766235
1718	H	0.625134	0.013079	0.779861
1719	N	0.614324	0.999174	0.909889
1720	H	0.607135	0.98094	0.900828
1721	H	0.624707	0.01201	0.887262
1722	N	0.634163	0.052937	0.936775
1723	H	0.641999	0.071334	0.945476
1724	H	0.629626	0.049586	0.905504
1725	N	0.584368	0.959651	0.974036
1726	H	0.570773	0.95891	0.951439
1727	N	0.637268	0.065393	0.692947
1728	H	0.624404	0.06612	0.715541
