data_C360H396N180_2018-02-15_10:33:17
#******************************************
#
# CIF file created by Zeo++
# Zeo++ is an open source package to
# analyze microporous materials
#
#*******************************************

_cell_length_a		43.0702   
_cell_length_b		43.0703   
_cell_length_c		30.0392   
_cell_angle_alpha		90   
_cell_angle_beta		90   
_cell_angle_gamma		120   

_symmetry_space_group_name_H-M		'P1'
_symmetry_Int_Tables_number		1
_symmetry_cell_setting		Monoclinic

loop_
_symmetry_equiv_pos_as_xyz
'+x,+y,+z'

loop_
_atom_site_label
_atom_site_type_symbol
_atom_site_fract_x
_atom_site_fract_y
_atom_site_fract_z
1	C	0.190253	0.368513	0.039254
2	N	0.201062	0.343818	0.039073
3	C	0.176956	0.308116	0.039271
4	N	0.141453	0.297306	0.03908
5	C	0.129854	0.321411	0.039266
6	N	0.154549	0.356915	0.039072
7	C	0.188079	0.280842	0.370762
8	H	0.176113	0.264862	0.340745
9	H	0.17686	0.263195	0.066252
10	C	0.091458	0.310287	0.037429
11	H	0.087443	0.322252	0.340745
12	H	0.085033	0.32151	0.066251
13	C	0.217524	0.406909	0.037424
14	H	0.233509	0.410926	0.340745
15	H	0.235165	0.413333	0.066252
16	C	0.307117	0.130359	0.955641
17	N	0.297185	0.155713	0.955904
18	C	0.32193	0.191248	0.955611
19	N	0.357219	0.201182	0.955901
20	C	0.368012	0.176439	0.955624
21	N	0.342655	0.141151	0.955914
22	C	0.311688	0.219148	0.292193
23	H	0.320795	0.235867	0.262294
24	H	0.325945	0.235977	0.987519
25	C	0.406153	0.18668	0.958873
26	H	0.413762	0.17757	0.262311
27	H	0.408723	0.172425	0.987536
28	C	0.279225	0.092215	0.958873
29	H	0.262515	0.084606	0.262299
30	H	0.262385	0.089635	0.987526
31	C	0.253562	0.279314	0.3108
32	C	0.264618	0.256701	0.291633
33	C	0.261955	0.227516	0.316009
34	C	0.248576	0.221662	0.026507
35	C	0.237746	0.244444	0.046687
36	C	0.239775	0.273298	0.0212
37	H	0.255048	0.29996	0.292267
38	H	0.274155	0.261259	0.259719
39	H	0.247173	0.200648	0.044134
40	N	0.226202	0.238152	0.089611
41	H	0.225711	0.218673	0.106657
42	H	0.22032	0.254111	0.105597
43	N	0.227662	0.296622	0.03596
44	H	0.239489	0.308443	0.06564
45	N	0.27247	0.203814	0.298293
46	H	0.259045	0.193033	0.26899
47	C	0.21906	0.473923	0.310797
48	C	0.241679	0.007595	0.291636
49	C	0.270859	0.034114	0.316019
50	C	0.276707	0.026585	0.026519
51	C	0.25392	0.492971	0.046692
52	C	0.225069	0.466148	0.021198
53	H	0.198417	0.454765	0.292258
54	H	0.237126	0.012577	0.259721
55	H	0.297717	0.046195	0.044152
56	N	0.260206	0.487717	0.089618
57	H	0.27968	0.5067	0.106669
58	H	0.244242	0.465872	0.1056
59	N	0.201743	0.430711	0.035952
60	H	0.189917	0.430714	0.065629
61	N	0.294564	0.068335	0.298312
62	H	0.305352	0.065696	0.269012
63	C	0.024443	0.244802	0.310807
64	C	0.490775	0.233748	0.291641
65	C	0.464254	0.236414	0.316018
66	C	0.471782	0.249795	0.026515
67	C	0.005393	0.260624	0.046693
68	C	0.032217	0.258592	0.021206
69	H	0.043603	0.243315	0.292273
70	H	0.485794	0.224209	0.259729
71	H	0.452171	0.2512	0.044143
72	N	0.010648	0.272172	0.089616
73	H	0.99166	0.272663	0.106662
74	H	0.032489	0.278051	0.105601
75	N	0.067655	0.270705	0.035964
76	H	0.067649	0.258879	0.065644
77	N	0.430036	0.225898	0.298304
78	H	0.43268	0.239321	0.268999
79	C	0.190253	0.368513	0.372586
80	N	0.201062	0.343818	0.372407
81	C	0.176956	0.308116	0.372603
82	N	0.141453	0.297306	0.372413
83	C	0.129854	0.321411	0.3726
84	N	0.154549	0.356915	0.372403
85	C	0.188079	0.280842	0.704096
86	H	0.176113	0.264862	0.674079
87	H	0.17686	0.263195	0.399584
88	C	0.091458	0.310287	0.370762
89	H	0.087443	0.322252	0.674079
90	H	0.085033	0.32151	0.399584
91	C	0.217524	0.406909	0.370759
92	H	0.233509	0.410926	0.674079
93	H	0.235165	0.413333	0.399584
94	C	0.307117	0.130359	0.288974
95	N	0.297185	0.155713	0.289237
96	C	0.32193	0.191248	0.288944
97	N	0.357219	0.201182	0.289232
98	C	0.368012	0.176439	0.288959
99	N	0.342655	0.141151	0.289248
100	C	0.311688	0.219148	0.625526
101	H	0.320795	0.235867	0.595628
102	H	0.325945	0.235977	0.320853
103	C	0.406153	0.18668	0.292208
104	H	0.413762	0.17757	0.595645
105	H	0.408723	0.172425	0.320871
106	C	0.279225	0.092215	0.292206
107	H	0.262515	0.084606	0.595632
108	H	0.262385	0.089635	0.320858
109	C	0.253562	0.279314	0.644135
110	C	0.264618	0.256701	0.624967
111	C	0.261955	0.227516	0.649341
112	C	0.248576	0.221662	0.35984
113	C	0.237746	0.244444	0.38002
114	C	0.239775	0.273298	0.354533
115	H	0.255048	0.29996	0.625599
116	H	0.274155	0.261259	0.593052
117	H	0.247173	0.200648	0.377467
118	N	0.226202	0.238152	0.422944
119	H	0.225711	0.218673	0.439992
120	H	0.22032	0.254111	0.43893
121	N	0.227662	0.296622	0.369294
122	H	0.239489	0.308443	0.398972
123	N	0.27247	0.203814	0.631628
124	H	0.259045	0.193033	0.602323
125	C	0.21906	0.473923	0.644131
126	C	0.241679	0.007595	0.62497
127	C	0.270859	0.034114	0.649351
128	C	0.276707	0.026585	0.359853
129	C	0.25392	0.492971	0.380027
130	C	0.225069	0.466148	0.354533
131	H	0.198417	0.454765	0.625592
132	H	0.237126	0.012577	0.593055
133	H	0.297717	0.046195	0.377487
134	N	0.260206	0.487717	0.422951
135	H	0.27968	0.5067	0.440002
136	H	0.244242	0.465872	0.438933
137	N	0.201743	0.430711	0.369284
138	H	0.189917	0.430714	0.398962
139	N	0.294564	0.068335	0.631644
140	H	0.305352	0.065696	0.602346
141	C	0.024443	0.244802	0.644141
142	C	0.490775	0.233748	0.624973
143	C	0.464254	0.236414	0.649351
144	C	0.471782	0.249795	0.35985
145	C	0.005393	0.260624	0.380027
146	C	0.032217	0.258592	0.35454
147	H	0.043603	0.243315	0.625606
148	H	0.485794	0.224209	0.593062
149	H	0.452171	0.2512	0.377477
150	N	0.010648	0.272172	0.422951
151	H	0.99166	0.272663	0.439995
152	H	0.032489	0.278051	0.438933
153	N	0.067655	0.270705	0.369297
154	H	0.067649	0.258879	0.398979
155	N	0.430036	0.225898	0.631638
156	H	0.43268	0.239321	0.602333
157	C	0.190253	0.368513	0.705921
158	N	0.201062	0.343818	0.705741
159	C	0.176956	0.308116	0.705937
160	N	0.141453	0.297306	0.705748
161	C	0.129854	0.321411	0.705934
162	N	0.154549	0.356915	0.705738
163	C	0.188079	0.280842	0.03743
164	H	0.176113	0.264862	0.007413
165	H	0.17686	0.263195	0.732919
166	C	0.091458	0.310287	0.704096
167	H	0.087443	0.322252	0.007412
168	H	0.085033	0.32151	0.732919
169	C	0.217524	0.406909	0.70409
170	H	0.233509	0.410926	0.007412
171	H	0.235165	0.413333	0.732919
172	C	0.307117	0.130359	0.622307
173	N	0.297185	0.155713	0.62257
174	C	0.32193	0.191248	0.622277
175	N	0.357219	0.201182	0.622566
176	C	0.368012	0.176439	0.622293
177	N	0.342655	0.141151	0.622583
178	C	0.311688	0.219148	0.95886
179	H	0.320795	0.235867	0.928963
180	H	0.325945	0.235977	0.654185
181	C	0.406153	0.18668	0.625542
182	H	0.413762	0.17757	0.928979
183	H	0.408723	0.172425	0.654205
184	C	0.279225	0.092215	0.625539
185	H	0.262515	0.084606	0.928966
186	H	0.262385	0.089635	0.654192
187	C	0.253562	0.279314	0.977466
188	C	0.264618	0.256701	0.958301
189	C	0.261955	0.227516	0.982676
190	C	0.248576	0.221662	0.693174
191	C	0.237746	0.244444	0.713354
192	C	0.239775	0.273298	0.687868
193	H	0.255048	0.29996	0.958933
194	H	0.274155	0.261259	0.926386
195	H	0.247173	0.200648	0.710801
196	N	0.226202	0.238152	0.756278
197	H	0.225711	0.218673	0.773323
198	H	0.22032	0.254111	0.772264
199	N	0.227662	0.296622	0.702628
200	H	0.239489	0.308443	0.732306
201	N	0.27247	0.203814	0.964959
202	H	0.259045	0.193033	0.935657
203	C	0.21906	0.473923	0.977463
204	C	0.241679	0.007595	0.958301
205	C	0.270859	0.034114	0.982686
206	C	0.276707	0.026585	0.693187
207	C	0.25392	0.492971	0.713358
208	C	0.225069	0.466148	0.687864
209	H	0.198417	0.454765	0.958927
210	H	0.237126	0.012577	0.926389
211	H	0.297717	0.046195	0.710818
212	N	0.260206	0.487717	0.756285
213	H	0.27968	0.5067	0.773336
214	H	0.244242	0.465872	0.772267
215	N	0.201743	0.430711	0.702618
216	H	0.189917	0.430714	0.732296
217	N	0.294564	0.068335	0.964979
218	H	0.305352	0.065696	0.93568
219	C	0.024443	0.244802	0.977473
220	C	0.490775	0.233748	0.958308
221	C	0.464254	0.236414	0.982686
222	C	0.471782	0.249795	0.693181
223	C	0.005393	0.260624	0.713361
224	C	0.032217	0.258592	0.687871
225	H	0.043603	0.243315	0.95894
226	H	0.485794	0.224209	0.926396
227	H	0.452171	0.2512	0.710811
228	N	0.010648	0.272172	0.756282
229	H	0.99166	0.272663	0.773329
230	H	0.032489	0.278051	0.772267
231	N	0.067655	0.270705	0.702632
232	H	0.067649	0.258879	0.73231
233	N	0.430036	0.225898	0.964972
234	H	0.43268	0.239321	0.935667
235	C	0.190251	0.868511	0.039254
236	N	0.201061	0.843816	0.039073
237	C	0.176955	0.808114	0.039271
238	N	0.141451	0.797304	0.03908
239	C	0.129854	0.821409	0.039266
240	N	0.154548	0.856913	0.039072
241	C	0.188079	0.780843	0.370762
242	H	0.176113	0.764862	0.340745
243	H	0.176859	0.763194	0.066252
244	C	0.091458	0.810288	0.037429
245	H	0.087442	0.82225	0.340745
246	H	0.085032	0.821508	0.066251
247	C	0.217523	0.906907	0.037424
248	H	0.233509	0.910926	0.340745
249	H	0.235164	0.913331	0.066252
250	C	0.307117	0.630357	0.955641
251	N	0.297185	0.655714	0.955904
252	C	0.321929	0.691248	0.955611
253	N	0.357217	0.701181	0.955901
254	C	0.36801	0.676438	0.955624
255	N	0.342654	0.641151	0.955914
256	C	0.311688	0.719148	0.292193
257	H	0.320795	0.735867	0.262294
258	H	0.325945	0.735977	0.987519
259	C	0.406151	0.686679	0.958873
260	H	0.413762	0.677569	0.262311
261	H	0.408723	0.672425	0.987536
262	C	0.279225	0.592215	0.958873
263	H	0.262515	0.584607	0.262299
264	H	0.262385	0.589634	0.987526
265	C	0.253563	0.779315	0.3108
266	C	0.264617	0.756701	0.291633
267	C	0.261954	0.727516	0.316009
268	C	0.248575	0.721661	0.026507
269	C	0.237746	0.744443	0.046687
270	C	0.239775	0.773299	0.0212
271	H	0.255048	0.799961	0.292267
272	H	0.274155	0.761258	0.259719
273	H	0.247173	0.700647	0.044134
274	N	0.226201	0.738151	0.089611
275	H	0.225711	0.718674	0.106657
276	H	0.22032	0.754111	0.105597
277	N	0.227662	0.796623	0.03596
278	H	0.23949	0.808444	0.06564
279	N	0.27247	0.703813	0.298293
280	H	0.259045	0.693033	0.26899
281	C	0.21906	0.973924	0.310797
282	C	0.241678	0.507593	0.291636
283	C	0.270859	0.534113	0.316019
284	C	0.276706	0.526585	0.026519
285	C	0.253919	0.992972	0.046692
286	C	0.22507	0.966149	0.021198
287	H	0.198417	0.954765	0.292258
288	H	0.237125	0.512577	0.259721
289	H	0.297716	0.546194	0.044152
290	N	0.260204	0.987715	0.089618
291	H	0.279681	0.006702	0.106669
292	H	0.244242	0.965873	0.1056
293	N	0.201741	0.930709	0.035952
294	H	0.189916	0.930714	0.065629
295	N	0.294563	0.568336	0.298312
296	H	0.305351	0.565695	0.269012
297	C	0.024444	0.744803	0.310807
298	C	0.490775	0.733749	0.291641
299	C	0.464255	0.736414	0.316018
300	C	0.471781	0.749795	0.026515
301	C	0.005393	0.760623	0.046693
302	C	0.032216	0.758591	0.021206
303	H	0.043602	0.743315	0.292273
304	H	0.485793	0.724207	0.259729
305	H	0.452171	0.751199	0.044143
306	N	0.010647	0.77217	0.089616
307	H	0.991662	0.772663	0.106662
308	H	0.032489	0.778052	0.105601
309	N	0.067654	0.770704	0.035964
310	H	0.067648	0.758878	0.065644
311	N	0.430035	0.725896	0.298304
312	H	0.432678	0.73932	0.268999
313	C	0.190251	0.868511	0.372586
314	N	0.201061	0.843816	0.372407
315	C	0.176955	0.808114	0.372603
316	N	0.141451	0.797304	0.372413
317	C	0.129854	0.821409	0.3726
318	N	0.154548	0.856913	0.372403
319	C	0.188079	0.780843	0.704096
320	H	0.176113	0.764862	0.674079
321	H	0.176859	0.763194	0.399584
322	C	0.091458	0.810288	0.370762
323	H	0.087442	0.82225	0.674079
324	H	0.085032	0.821508	0.399584
325	C	0.217523	0.906907	0.370759
326	H	0.233509	0.910926	0.674079
327	H	0.235164	0.913331	0.399584
328	C	0.307117	0.630357	0.288974
329	N	0.297185	0.655714	0.289237
330	C	0.321929	0.691248	0.288944
331	N	0.357217	0.701181	0.289232
332	C	0.36801	0.676438	0.288959
333	N	0.342654	0.641151	0.289248
334	C	0.311688	0.719148	0.625526
335	H	0.320795	0.735867	0.595628
336	H	0.325945	0.735977	0.320853
337	C	0.406151	0.686679	0.292208
338	H	0.413762	0.677569	0.595645
339	H	0.408723	0.672425	0.320871
340	C	0.279225	0.592215	0.292206
341	H	0.262515	0.584607	0.595632
342	H	0.262385	0.589634	0.320858
343	C	0.253563	0.779315	0.644135
344	C	0.264617	0.756701	0.624967
345	C	0.261954	0.727516	0.649341
346	C	0.248575	0.721661	0.35984
347	C	0.237746	0.744443	0.38002
348	C	0.239775	0.773299	0.354533
349	H	0.255048	0.799961	0.625599
350	H	0.274155	0.761258	0.593052
351	H	0.247173	0.700647	0.377467
352	N	0.226201	0.738151	0.422944
353	H	0.225711	0.718674	0.439992
354	H	0.22032	0.754111	0.43893
355	N	0.227662	0.796623	0.369294
356	H	0.23949	0.808444	0.398972
357	N	0.27247	0.703813	0.631628
358	H	0.259045	0.693033	0.602323
359	C	0.21906	0.973924	0.644131
360	C	0.241678	0.507593	0.62497
361	C	0.270859	0.534113	0.649351
362	C	0.276706	0.526585	0.359853
363	C	0.253919	0.992972	0.380027
364	C	0.22507	0.966149	0.354533
365	H	0.198417	0.954765	0.625592
366	H	0.237125	0.512577	0.593055
367	H	0.297716	0.546194	0.377487
368	N	0.260204	0.987715	0.422951
369	H	0.279681	0.006702	0.440002
370	H	0.244242	0.965873	0.438933
371	N	0.201741	0.930709	0.369284
372	H	0.189916	0.930714	0.398962
373	N	0.294563	0.568336	0.631644
374	H	0.305351	0.565695	0.602346
375	C	0.024444	0.744803	0.644141
376	C	0.490775	0.733749	0.624973
377	C	0.464255	0.736414	0.649351
378	C	0.471781	0.749795	0.35985
379	C	0.005393	0.760623	0.380027
380	C	0.032216	0.758591	0.35454
381	H	0.043602	0.743315	0.625606
382	H	0.485793	0.724207	0.593062
383	H	0.452171	0.751199	0.377477
384	N	0.010647	0.77217	0.422951
385	H	0.991662	0.772663	0.439995
386	H	0.032489	0.778052	0.438933
387	N	0.067654	0.770704	0.369297
388	H	0.067648	0.758878	0.398979
389	N	0.430035	0.725896	0.631638
390	H	0.432678	0.73932	0.602333
391	C	0.190251	0.868511	0.705921
392	N	0.201061	0.843816	0.705741
393	C	0.176955	0.808114	0.705937
394	N	0.141451	0.797304	0.705748
395	C	0.129854	0.821409	0.705934
396	N	0.154548	0.856913	0.705738
397	C	0.188079	0.780843	0.03743
398	H	0.176113	0.764862	0.007413
399	H	0.176859	0.763194	0.732919
400	C	0.091458	0.810288	0.704096
401	H	0.087442	0.82225	0.007412
402	H	0.085032	0.821508	0.732919
403	C	0.217523	0.906907	0.70409
404	H	0.233509	0.910926	0.007412
405	H	0.235164	0.913331	0.732919
406	C	0.307117	0.630357	0.622307
407	N	0.297185	0.655714	0.62257
408	C	0.321929	0.691248	0.622277
409	N	0.357217	0.701181	0.622566
410	C	0.36801	0.676438	0.622293
411	N	0.342654	0.641151	0.622583
412	C	0.311688	0.719148	0.95886
413	H	0.320795	0.735867	0.928963
414	H	0.325945	0.735977	0.654185
415	C	0.406151	0.686679	0.625542
416	H	0.413762	0.677569	0.928979
417	H	0.408723	0.672425	0.654205
418	C	0.279225	0.592215	0.625539
419	H	0.262515	0.584607	0.928966
420	H	0.262385	0.589634	0.654192
421	C	0.253563	0.779315	0.977466
422	C	0.264617	0.756701	0.958301
423	C	0.261954	0.727516	0.982676
424	C	0.248575	0.721661	0.693174
425	C	0.237746	0.744443	0.713354
426	C	0.239775	0.773299	0.687868
427	H	0.255048	0.799961	0.958933
428	H	0.274155	0.761258	0.926386
429	H	0.247173	0.700647	0.710801
430	N	0.226201	0.738151	0.756278
431	H	0.225711	0.718674	0.773323
432	H	0.22032	0.754111	0.772264
433	N	0.227662	0.796623	0.702628
434	H	0.23949	0.808444	0.732306
435	N	0.27247	0.703813	0.964959
436	H	0.259045	0.693033	0.935657
437	C	0.21906	0.973924	0.977463
438	C	0.241678	0.507593	0.958301
439	C	0.270859	0.534113	0.982686
440	C	0.276706	0.526585	0.693187
441	C	0.253919	0.992972	0.713358
442	C	0.22507	0.966149	0.687864
443	H	0.198417	0.954765	0.958927
444	H	0.237125	0.512577	0.926389
445	H	0.297716	0.546194	0.710818
446	N	0.260204	0.987715	0.756285
447	H	0.279681	0.006702	0.773336
448	H	0.244242	0.965873	0.772267
449	N	0.201741	0.930709	0.702618
450	H	0.189916	0.930714	0.732296
451	N	0.294563	0.568336	0.964979
452	H	0.305351	0.565695	0.93568
453	C	0.024444	0.744803	0.977473
454	C	0.490775	0.733749	0.958308
455	C	0.464255	0.736414	0.982686
456	C	0.471781	0.749795	0.693181
457	C	0.005393	0.760623	0.713361
458	C	0.032216	0.758591	0.687871
459	H	0.043602	0.743315	0.95894
460	H	0.485793	0.724207	0.926396
461	H	0.452171	0.751199	0.710811
462	N	0.010647	0.77217	0.756282
463	H	0.991662	0.772663	0.773329
464	H	0.032489	0.778052	0.772267
465	N	0.067654	0.770704	0.702632
466	H	0.067648	0.758878	0.73231
467	N	0.430035	0.725896	0.964972
468	H	0.432678	0.73932	0.935667
469	C	0.690253	0.368513	0.039254
470	N	0.701061	0.343818	0.039073
471	C	0.676958	0.308116	0.039271
472	N	0.641453	0.297306	0.03908
473	C	0.629853	0.321411	0.039266
474	N	0.65455	0.356915	0.039072
475	C	0.688081	0.280842	0.370762
476	H	0.676113	0.264862	0.340745
477	H	0.676861	0.263195	0.066252
478	C	0.591459	0.310287	0.037429
479	H	0.587444	0.322252	0.340745
480	H	0.585032	0.32151	0.066251
481	C	0.717525	0.406909	0.037424
482	H	0.73351	0.410926	0.340745
483	H	0.735166	0.413333	0.066252
484	C	0.807119	0.130359	0.955641
485	N	0.797185	0.155713	0.955904
486	C	0.821929	0.191248	0.955611
487	N	0.857219	0.201182	0.955901
488	C	0.868012	0.176439	0.955624
489	N	0.842655	0.141151	0.955914
490	C	0.811688	0.219148	0.292193
491	H	0.820795	0.235867	0.262294
492	H	0.825947	0.235977	0.987519
493	C	0.906153	0.18668	0.958873
494	H	0.913764	0.17757	0.262311
495	H	0.908723	0.172425	0.987536
496	C	0.779225	0.092215	0.958873
497	H	0.762516	0.084606	0.262299
498	H	0.762385	0.089635	0.987526
499	C	0.753562	0.279314	0.3108
500	C	0.764619	0.256701	0.291633
501	C	0.761956	0.227516	0.316009
502	C	0.748576	0.221662	0.026507
503	C	0.737747	0.244444	0.046687
504	C	0.739776	0.273298	0.0212
505	H	0.755048	0.29996	0.292267
506	H	0.774156	0.261259	0.259719
507	H	0.747173	0.200648	0.044134
508	N	0.726201	0.238152	0.089611
509	H	0.725712	0.218673	0.106657
510	H	0.72032	0.254111	0.105597
511	N	0.727663	0.296622	0.03596
512	H	0.739489	0.308443	0.06564
513	N	0.77247	0.203814	0.298293
514	H	0.759046	0.193033	0.26899
515	C	0.71906	0.473923	0.310797
516	C	0.741679	0.007595	0.291636
517	C	0.770859	0.034114	0.316019
518	C	0.776707	0.026585	0.026519
519	C	0.75392	0.492971	0.046692
520	C	0.725069	0.466148	0.021198
521	H	0.698418	0.454765	0.292258
522	H	0.737126	0.012577	0.259721
523	H	0.797717	0.046195	0.044152
524	N	0.760206	0.487717	0.089618
525	H	0.779682	0.5067	0.106669
526	H	0.744243	0.465872	0.1056
527	N	0.701743	0.430711	0.035952
528	H	0.689917	0.430714	0.065629
529	N	0.794564	0.068335	0.298312
530	H	0.805352	0.065696	0.269012
531	C	0.524443	0.244802	0.310807
532	C	0.990775	0.233748	0.291641
533	C	0.964256	0.236414	0.316018
534	C	0.971782	0.249795	0.026515
535	C	0.505393	0.260624	0.046693
536	C	0.532217	0.258592	0.021206
537	H	0.543604	0.243315	0.292273
538	H	0.985794	0.224209	0.259729
539	H	0.952171	0.2512	0.044143
540	N	0.510649	0.272172	0.089616
541	H	0.49166	0.272663	0.106662
542	H	0.532488	0.278051	0.105601
543	N	0.567656	0.270705	0.035964
544	H	0.56765	0.258879	0.065644
545	N	0.930036	0.225898	0.298304
546	H	0.93268	0.239321	0.268999
547	C	0.690253	0.368513	0.372586
548	N	0.701061	0.343818	0.372407
549	C	0.676958	0.308116	0.372603
550	N	0.641453	0.297306	0.372413
551	C	0.629853	0.321411	0.3726
552	N	0.65455	0.356915	0.372403
553	C	0.688081	0.280842	0.704096
554	H	0.676113	0.264862	0.674079
555	H	0.676861	0.263195	0.399584
556	C	0.591459	0.310287	0.370762
557	H	0.587444	0.322252	0.674079
558	H	0.585032	0.32151	0.399584
559	C	0.717525	0.406909	0.370759
560	H	0.73351	0.410926	0.674079
561	H	0.735166	0.413333	0.399584
562	C	0.807119	0.130359	0.288974
563	N	0.797185	0.155713	0.289237
564	C	0.821929	0.191248	0.288944
565	N	0.857219	0.201182	0.289232
566	C	0.868012	0.176439	0.288959
567	N	0.842655	0.141151	0.289248
568	C	0.811688	0.219148	0.625526
569	H	0.820795	0.235867	0.595628
570	H	0.825947	0.235977	0.320853
571	C	0.906153	0.18668	0.292208
572	H	0.913764	0.17757	0.595645
573	H	0.908723	0.172425	0.320871
574	C	0.779225	0.092215	0.292206
575	H	0.762516	0.084606	0.595632
576	H	0.762385	0.089635	0.320858
577	C	0.753562	0.279314	0.644135
578	C	0.764619	0.256701	0.624967
579	C	0.761956	0.227516	0.649341
580	C	0.748576	0.221662	0.35984
581	C	0.737747	0.244444	0.38002
582	C	0.739776	0.273298	0.354533
583	H	0.755048	0.29996	0.625599
584	H	0.774156	0.261259	0.593052
585	H	0.747173	0.200648	0.377467
586	N	0.726201	0.238152	0.422944
587	H	0.725712	0.218673	0.439992
588	H	0.72032	0.254111	0.43893
589	N	0.727663	0.296622	0.369294
590	H	0.739489	0.308443	0.398972
591	N	0.77247	0.203814	0.631628
592	H	0.759046	0.193033	0.602323
593	C	0.71906	0.473923	0.644131
594	C	0.741679	0.007595	0.62497
595	C	0.770859	0.034114	0.649351
596	C	0.776707	0.026585	0.359853
597	C	0.75392	0.492971	0.380027
598	C	0.725069	0.466148	0.354533
599	H	0.698418	0.454765	0.625592
600	H	0.737126	0.012577	0.593055
601	H	0.797717	0.046195	0.377487
602	N	0.760206	0.487717	0.422951
603	H	0.779682	0.5067	0.440002
604	H	0.744243	0.465872	0.438933
605	N	0.701743	0.430711	0.369284
606	H	0.689917	0.430714	0.398962
607	N	0.794564	0.068335	0.631644
608	H	0.805352	0.065696	0.602346
609	C	0.524443	0.244802	0.644141
610	C	0.990775	0.233748	0.624973
611	C	0.964256	0.236414	0.649351
612	C	0.971782	0.249795	0.35985
613	C	0.505393	0.260624	0.380027
614	C	0.532217	0.258592	0.35454
615	H	0.543604	0.243315	0.625606
616	H	0.985794	0.224209	0.593062
617	H	0.952171	0.2512	0.377477
618	N	0.510649	0.272172	0.422951
619	H	0.49166	0.272663	0.439995
620	H	0.532488	0.278051	0.438933
621	N	0.567656	0.270705	0.369297
622	H	0.56765	0.258879	0.398979
623	N	0.930036	0.225898	0.631638
624	H	0.93268	0.239321	0.602333
625	C	0.690253	0.368513	0.705921
626	N	0.701061	0.343818	0.705741
627	C	0.676958	0.308116	0.705937
628	N	0.641453	0.297306	0.705748
629	C	0.629853	0.321411	0.705934
630	N	0.65455	0.356915	0.705738
631	C	0.688081	0.280842	0.03743
632	H	0.676113	0.264862	0.007413
633	H	0.676861	0.263195	0.732919
634	C	0.591459	0.310287	0.704096
635	H	0.587444	0.322252	0.007412
636	H	0.585032	0.32151	0.732919
637	C	0.717525	0.406909	0.70409
638	H	0.73351	0.410926	0.007412
639	H	0.735166	0.413333	0.732919
640	C	0.807119	0.130359	0.622307
641	N	0.797185	0.155713	0.62257
642	C	0.821929	0.191248	0.622277
643	N	0.857219	0.201182	0.622566
644	C	0.868012	0.176439	0.622293
645	N	0.842655	0.141151	0.622583
646	C	0.811688	0.219148	0.95886
647	H	0.820795	0.235867	0.928963
648	H	0.825947	0.235977	0.654185
649	C	0.906153	0.18668	0.625542
650	H	0.913764	0.17757	0.928979
651	H	0.908723	0.172425	0.654205
652	C	0.779225	0.092215	0.625539
653	H	0.762516	0.084606	0.928966
654	H	0.762385	0.089635	0.654192
655	C	0.753562	0.279314	0.977466
656	C	0.764619	0.256701	0.958301
657	C	0.761956	0.227516	0.982676
658	C	0.748576	0.221662	0.693174
659	C	0.737747	0.244444	0.713354
660	C	0.739776	0.273298	0.687868
661	H	0.755048	0.29996	0.958933
662	H	0.774156	0.261259	0.926386
663	H	0.747173	0.200648	0.710801
664	N	0.726201	0.238152	0.756278
665	H	0.725712	0.218673	0.773323
666	H	0.72032	0.254111	0.772264
667	N	0.727663	0.296622	0.702628
668	H	0.739489	0.308443	0.732306
669	N	0.77247	0.203814	0.964959
670	H	0.759046	0.193033	0.935657
671	C	0.71906	0.473923	0.977463
672	C	0.741679	0.007595	0.958301
673	C	0.770859	0.034114	0.982686
674	C	0.776707	0.026585	0.693187
675	C	0.75392	0.492971	0.713358
676	C	0.725069	0.466148	0.687864
677	H	0.698418	0.454765	0.958927
678	H	0.737126	0.012577	0.926389
679	H	0.797717	0.046195	0.710818
680	N	0.760206	0.487717	0.756285
681	H	0.779682	0.5067	0.773336
682	H	0.744243	0.465872	0.772267
683	N	0.701743	0.430711	0.702618
684	H	0.689917	0.430714	0.732296
685	N	0.794564	0.068335	0.964979
686	H	0.805352	0.065696	0.93568
687	C	0.524443	0.244802	0.977473
688	C	0.990775	0.233748	0.958308
689	C	0.964256	0.236414	0.982686
690	C	0.971782	0.249795	0.693181
691	C	0.505393	0.260624	0.713361
692	C	0.532217	0.258592	0.687871
693	H	0.543604	0.243315	0.95894
694	H	0.985794	0.224209	0.926396
695	H	0.952171	0.2512	0.710811
696	N	0.510649	0.272172	0.756282
697	H	0.49166	0.272663	0.773329
698	H	0.532488	0.278051	0.772267
699	N	0.567656	0.270705	0.702632
700	H	0.56765	0.258879	0.73231
701	N	0.930036	0.225898	0.964972
702	H	0.93268	0.239321	0.935667
703	C	0.690251	0.868511	0.039254
704	N	0.701062	0.843816	0.039073
705	C	0.676956	0.808114	0.039271
706	N	0.641451	0.797304	0.03908
707	C	0.629853	0.821409	0.039266
708	N	0.654549	0.856913	0.039072
709	C	0.68808	0.780843	0.370762
710	H	0.676112	0.764862	0.340745
711	H	0.676859	0.763194	0.066252
712	C	0.591459	0.810288	0.037429
713	H	0.587442	0.82225	0.340745
714	H	0.585032	0.821508	0.066251
715	C	0.717523	0.906907	0.037424
716	H	0.733509	0.910926	0.340745
717	H	0.735164	0.913331	0.066252
718	C	0.807117	0.630357	0.955641
719	N	0.797186	0.655714	0.955904
720	C	0.82193	0.691248	0.955611
721	N	0.857217	0.701181	0.955901
722	C	0.86801	0.676438	0.955624
723	N	0.842653	0.641151	0.955914
724	C	0.81169	0.719148	0.292193
725	H	0.820796	0.735867	0.262294
726	H	0.825945	0.735977	0.987519
727	C	0.906151	0.686679	0.958873
728	H	0.913762	0.677569	0.262311
729	H	0.908724	0.672425	0.987536
730	C	0.779226	0.592215	0.958873
731	H	0.762515	0.584607	0.262299
732	H	0.762386	0.589634	0.987526
733	C	0.753563	0.779315	0.3108
734	C	0.764617	0.756701	0.291633
735	C	0.761954	0.727516	0.316009
736	C	0.748574	0.721661	0.026507
737	C	0.737746	0.744443	0.046687
738	C	0.739775	0.773299	0.0212
739	H	0.755047	0.799961	0.292267
740	H	0.774154	0.761258	0.259719
741	H	0.747173	0.700647	0.044134
742	N	0.726202	0.738151	0.089611
743	H	0.725711	0.718674	0.106657
744	H	0.720321	0.754111	0.105597
745	N	0.727662	0.796623	0.03596
746	H	0.739491	0.808444	0.06564
747	N	0.772471	0.703813	0.298293
748	H	0.759045	0.693033	0.26899
749	C	0.719061	0.973924	0.310797
750	C	0.741679	0.507593	0.291636
751	C	0.77086	0.534113	0.316019
752	C	0.776706	0.526585	0.026519
753	C	0.753921	0.992972	0.046692
754	C	0.72507	0.966149	0.021198
755	H	0.698418	0.954765	0.292258
756	H	0.737127	0.512577	0.259721
757	H	0.797717	0.546194	0.044152
758	N	0.760204	0.987715	0.089618
759	H	0.779681	0.006702	0.106669
760	H	0.744242	0.965873	0.1056
761	N	0.701743	0.930709	0.035952
762	H	0.689917	0.930714	0.065629
763	N	0.794563	0.568336	0.298312
764	H	0.80535	0.565695	0.269012
765	C	0.524444	0.744803	0.310807
766	C	0.990775	0.733749	0.291641
767	C	0.964255	0.736414	0.316018
768	C	0.971781	0.749795	0.026515
769	C	0.505393	0.760623	0.046693
770	C	0.532216	0.758591	0.021206
771	H	0.543603	0.743315	0.292273
772	H	0.985793	0.724207	0.259729
773	H	0.952172	0.751199	0.044143
774	N	0.510647	0.77217	0.089616
775	H	0.491661	0.772663	0.106662
776	H	0.532489	0.778052	0.105601
777	N	0.567654	0.770704	0.035964
778	H	0.567648	0.758878	0.065644
779	N	0.930034	0.725896	0.298304
780	H	0.932678	0.73932	0.268999
781	C	0.690251	0.868511	0.372586
782	N	0.701062	0.843816	0.372407
783	C	0.676956	0.808114	0.372603
784	N	0.641451	0.797304	0.372413
785	C	0.629853	0.821409	0.3726
786	N	0.654549	0.856913	0.372403
787	C	0.68808	0.780843	0.704096
788	H	0.676112	0.764862	0.674079
789	H	0.676859	0.763194	0.399584
790	C	0.591459	0.810288	0.370762
791	H	0.587442	0.82225	0.674079
792	H	0.585032	0.821508	0.399584
793	C	0.717523	0.906907	0.370759
794	H	0.733509	0.910926	0.674079
795	H	0.735164	0.913331	0.399584
796	C	0.807117	0.630357	0.288974
797	N	0.797186	0.655714	0.289237
798	C	0.82193	0.691248	0.288944
799	N	0.857217	0.701181	0.289232
800	C	0.86801	0.676438	0.288959
801	N	0.842653	0.641151	0.289248
802	C	0.81169	0.719148	0.625526
803	H	0.820796	0.735867	0.595628
804	H	0.825945	0.735977	0.320853
805	C	0.906151	0.686679	0.292208
806	H	0.913762	0.677569	0.595645
807	H	0.908724	0.672425	0.320871
808	C	0.779226	0.592215	0.292206
809	H	0.762515	0.584607	0.595632
810	H	0.762386	0.589634	0.320858
811	C	0.753563	0.779315	0.644135
812	C	0.764617	0.756701	0.624967
813	C	0.761954	0.727516	0.649341
814	C	0.748574	0.721661	0.35984
815	C	0.737746	0.744443	0.38002
816	C	0.739775	0.773299	0.354533
817	H	0.755047	0.799961	0.625599
818	H	0.774154	0.761258	0.593052
819	H	0.747173	0.700647	0.377467
820	N	0.726202	0.738151	0.422944
821	H	0.725711	0.718674	0.439992
822	H	0.720321	0.754111	0.43893
823	N	0.727662	0.796623	0.369294
824	H	0.739491	0.808444	0.398972
825	N	0.772471	0.703813	0.631628
826	H	0.759045	0.693033	0.602323
827	C	0.719061	0.973924	0.644131
828	C	0.741679	0.507593	0.62497
829	C	0.77086	0.534113	0.649351
830	C	0.776706	0.526585	0.359853
831	C	0.753921	0.992972	0.380027
832	C	0.72507	0.966149	0.354533
833	H	0.698418	0.954765	0.625592
834	H	0.737127	0.512577	0.593055
835	H	0.797717	0.546194	0.377487
836	N	0.760204	0.987715	0.422951
837	H	0.779681	0.006702	0.440002
838	H	0.744242	0.965873	0.438933
839	N	0.701743	0.930709	0.369284
840	H	0.689917	0.930714	0.398962
841	N	0.794563	0.568336	0.631644
842	H	0.80535	0.565695	0.602346
843	C	0.524444	0.744803	0.644141
844	C	0.990775	0.733749	0.624973
845	C	0.964255	0.736414	0.649351
846	C	0.971781	0.749795	0.35985
847	C	0.505393	0.760623	0.380027
848	C	0.532216	0.758591	0.35454
849	H	0.543603	0.743315	0.625606
850	H	0.985793	0.724207	0.593062
851	H	0.952172	0.751199	0.377477
852	N	0.510647	0.77217	0.422951
853	H	0.491661	0.772663	0.439995
854	H	0.532489	0.778052	0.438933
855	N	0.567654	0.770704	0.369297
856	H	0.567648	0.758878	0.398979
857	N	0.930034	0.725896	0.631638
858	H	0.932678	0.73932	0.602333
859	C	0.690251	0.868511	0.705921
860	N	0.701062	0.843816	0.705741
861	C	0.676956	0.808114	0.705937
862	N	0.641451	0.797304	0.705748
863	C	0.629853	0.821409	0.705934
864	N	0.654549	0.856913	0.705738
865	C	0.68808	0.780843	0.03743
866	H	0.676112	0.764862	0.007413
867	H	0.676859	0.763194	0.732919
868	C	0.591459	0.810288	0.704096
869	H	0.587442	0.82225	0.007412
870	H	0.585032	0.821508	0.732919
871	C	0.717523	0.906907	0.70409
872	H	0.733509	0.910926	0.007412
873	H	0.735164	0.913331	0.732919
874	C	0.807117	0.630357	0.622307
875	N	0.797186	0.655714	0.62257
876	C	0.82193	0.691248	0.622277
877	N	0.857217	0.701181	0.622566
878	C	0.86801	0.676438	0.622293
879	N	0.842653	0.641151	0.622583
880	C	0.81169	0.719148	0.95886
881	H	0.820796	0.735867	0.928963
882	H	0.825945	0.735977	0.654185
883	C	0.906151	0.686679	0.625542
884	H	0.913762	0.677569	0.928979
885	H	0.908724	0.672425	0.654205
886	C	0.779226	0.592215	0.625539
887	H	0.762515	0.584607	0.928966
888	H	0.762386	0.589634	0.654192
889	C	0.753563	0.779315	0.977466
890	C	0.764617	0.756701	0.958301
891	C	0.761954	0.727516	0.982676
892	C	0.748574	0.721661	0.693174
893	C	0.737746	0.744443	0.713354
894	C	0.739775	0.773299	0.687868
895	H	0.755047	0.799961	0.958933
896	H	0.774154	0.761258	0.926386
897	H	0.747173	0.700647	0.710801
898	N	0.726202	0.738151	0.756278
899	H	0.725711	0.718674	0.773323
900	H	0.720321	0.754111	0.772264
901	N	0.727662	0.796623	0.702628
902	H	0.739491	0.808444	0.732306
903	N	0.772471	0.703813	0.964959
904	H	0.759045	0.693033	0.935657
905	C	0.719061	0.973924	0.977463
906	C	0.741679	0.507593	0.958301
907	C	0.77086	0.534113	0.982686
908	C	0.776706	0.526585	0.693187
909	C	0.753921	0.992972	0.713358
910	C	0.72507	0.966149	0.687864
911	H	0.698418	0.954765	0.958927
912	H	0.737127	0.512577	0.926389
913	H	0.797717	0.546194	0.710818
914	N	0.760204	0.987715	0.756285
915	H	0.779681	0.006702	0.773336
916	H	0.744242	0.965873	0.772267
917	N	0.701743	0.930709	0.702618
918	H	0.689917	0.930714	0.732296
919	N	0.794563	0.568336	0.964979
920	H	0.80535	0.565695	0.93568
921	C	0.524444	0.744803	0.977473
922	C	0.990775	0.733749	0.958308
923	C	0.964255	0.736414	0.982686
924	C	0.971781	0.749795	0.693181
925	C	0.505393	0.760623	0.713361
926	C	0.532216	0.758591	0.687871
927	H	0.543603	0.743315	0.95894
928	H	0.985793	0.724207	0.926396
929	H	0.952172	0.751199	0.710811
930	N	0.510647	0.77217	0.756282
931	H	0.491661	0.772663	0.773329
932	H	0.532489	0.778052	0.772267
933	N	0.567654	0.770704	0.702632
934	H	0.567648	0.758878	0.73231
935	N	0.930034	0.725896	0.964972
936	H	0.932678	0.73932	0.935667
