data_str_m1_o3_o7_f0_pcu.sym.10
_audit_creation_date              2012-12-10T19:37:13-0500
_audit_creation_method            fapswitch 2.2
_symmetry_space_group_name_H-M    P1
_symmetry_Int_Tables_number       1
_space_group_crystal_system       triclinic
_cell_length_a                    30.549857
_cell_length_b                    30.549857
_cell_length_c                    39.748543
_cell_angle_alpha                 89.999987
_cell_angle_beta                  89.999987
_cell_angle_gamma                 90.0
_cell_volume                      37097.0672591

loop_
_atom_site_label
_atom_site_type_symbol
_atom_type_description
_atom_site_fract_x
_atom_site_fract_y
_atom_site_fract_z
_atom_type_partial_charge
C1    C     C_R   0.500000 0.000000 0.159048 0.513203
C2    C     C_R   0.039664 0.500000 0.895909 -0.139405
C3    C     C_R   0.686808 0.147028 0.728507 -0.121141
C4    C     C_R   0.852996 0.686831 0.271466 -0.120894
C5    C     C_R   0.147028 0.313193 0.728507 -0.121141
C6    C     C_R   0.686832 0.147004 0.271466 -0.120894
C7    C     C_R   0.313192 0.852972 0.728507 -0.121141
C8    C     C_R   0.147028 0.686808 0.728507 -0.121141
C9    C     C_R   0.852996 0.313168 0.271466 -0.120894
C10   C     C_R   0.313192 0.147028 0.728507 -0.121141
C11   C     C_R   0.686831 0.852996 0.271466 -0.120894
C12   C     C_R   0.852972 0.313192 0.728507 -0.121141
C13   C     C_R   0.500000 0.039664 0.104091 -0.139594
C14   C     C_R   0.147004 0.686832 0.271466 -0.120894
C15   C     C_R   0.686808 0.852972 0.728507 -0.121141
C16   C     C_R   0.313168 0.147004 0.271466 -0.120894
C17   C     C_R   0.647028 0.813192 0.771492 -0.121141
C18   C     C_R   0.352996 0.186832 0.228534 -0.120894
C19   C     C_R   0.813192 0.352972 0.771492 -0.121141
C20   C     C_R   0.186832 0.647004 0.228534 -0.120894
C21   C     C_R   0.352972 0.186807 0.771493 -0.121141
C22   C     C_R   0.647004 0.813168 0.228534 -0.120894
C23   C     C_R   0.186808 0.647028 0.771492 -0.121141
C24   C     C_R   0.500000 0.960336 0.895909 -0.139405
C25   C     C_R   0.813168 0.352996 0.228534 -0.120894
C26   C     C_R   0.647004 0.186832 0.228534 -0.120894
C27   C     C_R   0.352972 0.813192 0.771492 -0.121141
C28   C     C_R   0.813168 0.647004 0.228534 -0.120894
C29   C     C_R   0.186807 0.352972 0.771493 -0.121141
C30   C     C_R   0.352996 0.813168 0.228534 -0.120894
C31   C     C_R   0.647028 0.186808 0.771492 -0.121141
C32   C     C_R   0.186832 0.352996 0.228534 -0.120894
C33   C     C_R   0.813192 0.647028 0.771492 -0.121141
C34   C     C_R   0.183321 0.316679 0.250000 0.030288
C35   C     C_R   0.039664 0.500000 0.104091 -0.139594
C36   C     C_R   0.816679 0.683321 0.750000 0.030418
C37   C     C_R   0.316679 0.816679 0.250000 0.030288
C38   C     C_R   0.683321 0.183321 0.750000 0.030418
C39   C     C_R   0.816679 0.683321 0.250000 0.030288
C40   C     C_R   0.183321 0.316679 0.750000 0.030418
C41   C     C_R   0.683321 0.183321 0.250000 0.030288
C42   C     C_R   0.316679 0.816679 0.750000 0.030418
C43   C     C_R   0.183321 0.683321 0.750000 0.030418
C44   C     C_R   0.816679 0.316679 0.250000 0.030288
C45   C     C_R   0.316679 0.183321 0.750000 0.030418
C46   C     C_R   0.960336 0.500000 0.895909 -0.139405
C47   C     C_R   0.683321 0.816679 0.250000 0.030288
C48   C     C_R   0.816679 0.316679 0.750000 0.030418
C49   C     C_R   0.183321 0.683321 0.250000 0.030288
C50   C     C_R   0.683321 0.816679 0.750000 0.030418
C51   C     C_R   0.316679 0.183321 0.250000 0.030288
C52   C     C_R   0.118244 0.381756 0.250000 0.035047
C53   C     C_R   0.881756 0.618244 0.750000 0.035046
C54   C     C_R   0.381756 0.881756 0.250000 0.035047
C55   C     C_R   0.618244 0.118244 0.750000 0.035046
C56   C     C_R   0.881756 0.618244 0.250000 0.035047
C57   C     C_R   0.500000 0.960336 0.104091 -0.139594
C58   C     C_R   0.118244 0.381756 0.750000 0.035046
C59   C     C_R   0.618244 0.118244 0.250000 0.035047
C60   C     C_R   0.381756 0.881756 0.750000 0.035046
C61   C     C_R   0.118244 0.618244 0.750000 0.035046
C62   C     C_R   0.881756 0.381756 0.250000 0.035047
C63   C     C_R   0.381756 0.118244 0.750000 0.035046
C64   C     C_R   0.618244 0.881756 0.250000 0.035047
C65   C     C_R   0.881756 0.381756 0.750000 0.035046
C66   C     C_R   0.118244 0.618244 0.250000 0.035047
C67   C     C_R   0.618244 0.881756 0.750000 0.035046
C68   C     C_R   0.500000 0.039664 0.895909 -0.139405
C69   C     C_R   0.381756 0.118244 0.250000 0.035047
C70   C     C_R   0.235167 0.267423 0.219543 -0.111731
C71   C     C_R   0.738099 0.705843 0.751192 -0.111529
C72   C     C_R   0.267423 0.764833 0.219543 -0.111731
C73   C     C_R   0.705843 0.261901 0.751192 -0.111528
C74   C     C_R   0.764834 0.732577 0.219543 -0.111731
C75   C     C_R   0.261901 0.294157 0.751192 -0.111528
C76   C     C_R   0.732577 0.235167 0.219543 -0.111731
C77   C     C_R   0.294157 0.738099 0.751192 -0.111528
C78   C     C_R   0.261901 0.705843 0.751192 -0.111528
C79   C     C_R   0.460336 0.000000 0.604091 -0.139405
C80   C     C_R   0.764833 0.267423 0.219543 -0.111731
C81   C     C_R   0.294157 0.261901 0.751192 -0.111528
C82   C     C_R   0.732577 0.764834 0.219543 -0.111731
C83   C     C_R   0.738099 0.294157 0.751192 -0.111528
C84   C     C_R   0.235167 0.732577 0.219543 -0.111731
C85   C     C_R   0.705843 0.738099 0.751192 -0.111529
C86   C     C_R   0.267423 0.235167 0.219543 -0.111731
C87   C     C_R   0.761901 0.794157 0.748808 -0.111529
C88   C     C_R   0.264833 0.232576 0.280456 -0.111731
C89   C     C_R   0.794157 0.238099 0.748808 -0.111528
C90   C     C_R   0.539664 1.000000 0.395909 -0.139594
C91   C     C_R   0.232577 0.735166 0.280456 -0.111731
C92   C     C_R   0.238099 0.205843 0.748808 -0.111528
C93   C     C_R   0.735166 0.767423 0.280456 -0.111731
C94   C     C_R   0.205842 0.761901 0.748808 -0.111528
C95   C     C_R   0.767423 0.264833 0.280456 -0.111731
C96   C     C_R   0.735166 0.232577 0.280456 -0.111731
C97   C     C_R   0.238099 0.794157 0.748808 -0.111528
C98   C     C_R   0.767423 0.735166 0.280456 -0.111731
C99   C     C_R   0.205843 0.238099 0.748808 -0.111528
C100  C     C_R   0.264833 0.767423 0.280456 -0.111731
C101  C     C_R   0.000000 0.539664 0.604091 -0.139405
C102  C     C_R   0.761901 0.205842 0.748808 -0.111528
C103  C     C_R   0.232576 0.264833 0.280456 -0.111731
C104  C     C_R   0.794157 0.761901 0.748808 -0.111529
C105  C     C_R   0.282531 0.217469 0.250000 0.030467
C106  C     C_R   0.717469 0.782531 0.750000 0.031318
C107  C     C_R   0.217469 0.717469 0.250000 0.030467
C108  C     C_R   0.782531 0.282531 0.750000 0.031318
C109  C     C_R   0.717469 0.782531 0.250000 0.030467
C110  C     C_R   0.282531 0.217469 0.750000 0.031318
C111  C     C_R   0.782531 0.282531 0.250000 0.030467
C112  C     C_R   0.500000 1.000000 0.840952 0.513315
C113  C     C_R   0.000000 0.460336 0.395909 -0.139594
C114  C     C_R   0.217469 0.717469 0.750000 0.031318
C115  C     C_R   0.282531 0.782531 0.750000 0.031318
C116  C     C_R   0.717469 0.217469 0.250000 0.030467
C117  C     C_R   0.217469 0.282531 0.750000 0.031318
C118  C     C_R   0.782531 0.717469 0.250000 0.030467
C119  C     C_R   0.717469 0.217469 0.750000 0.031318
C120  C     C_R   0.282531 0.782531 0.250000 0.030467
C121  C     C_R   0.782531 0.717469 0.750000 0.031318
C122  C     C_R   0.217469 0.282531 0.250000 0.030467
C123  C     C_R   0.960046 0.500000 0.068727 0.203872
C124  C     C_R   0.539664 0.000000 0.604091 -0.139405
C125  C     C_R   0.039954 0.500000 0.931273 0.203981
C126  C     C_R   0.500000 0.039954 0.068727 0.203871
C127  C     C_R   0.500000 0.960046 0.931273 0.203981
C128  C     C_R   0.039954 0.500000 0.068727 0.203871
C129  C     C_R   0.960046 0.500000 0.931273 0.203981
C130  C     C_R   0.500000 0.960046 0.068727 0.203872
C131  C     C_R   0.500000 0.039954 0.931273 0.203981
C132  C     C_R   0.460046 1.000000 0.568727 0.203981
C133  C     C_R   0.539954 0.000000 0.431273 0.203872
C134  C     C_R   1.000000 0.539954 0.568727 0.203980
C135  C     C_R   0.460336 1.000000 0.395909 -0.139594
C136  C     C_R   0.000000 0.460046 0.431273 0.203871
C137  C     C_R   0.539954 1.000000 0.568727 0.203980
C138  C     C_R   0.460046 1.000000 0.431273 0.203871
C139  C     C_R   1.000000 0.460046 0.568727 0.203981
C140  C     C_R   0.000000 0.539954 0.431273 0.203872
C141  C     C_R   0.000000 0.460336 0.604091 -0.139405
C142  C     C_R   0.000000 0.539664 0.395909 -0.139594
C143  C     C_R   0.000000 0.500000 0.121920 -0.028921
C144  C     C_R   1.000000 0.500000 0.878080 -0.028903
C145  C     C_R   0.500000 0.000000 0.121920 -0.028921
C146  C     C_R   0.500000 1.000000 0.878080 -0.028903
C147  C     C_R   0.500000 1.000000 0.621920 -0.028903
C148  C     C_R   0.000000 0.500000 0.159048 0.513203
C149  C     C_R   0.500000 0.000000 0.378080 -0.028921
C150  C     C_R   1.000000 0.500000 0.621920 -0.028903
C151  C     C_R   0.000000 0.500000 0.378080 -0.028921
C152  C     C_R   0.000000 0.500000 0.051261 0.106754
C153  C     C_R   0.000000 0.500000 0.948739 0.106749
C154  C     C_R   0.500000 0.000000 0.051261 0.106754
C155  C     C_R   0.500000 0.000000 0.948739 0.106749
C156  C     C_R   0.500000 0.000000 0.551261 0.106749
C157  C     C_R   0.500000 0.000000 0.448739 0.106754
C158  C     C_R   0.000000 0.500000 0.551261 0.106749
C159  C     C_R   1.000000 0.500000 0.840952 0.513315
C160  C     C_R   0.000000 0.500000 0.448739 0.106754
C161  C     C_1   1.000000 0.500000 0.015114 0.142428
C162  C     C_1   0.000000 0.500000 0.984886 0.142446
C163  C     C_1   0.500000 1.000000 0.015114 0.142428
C164  C     C_1   0.500000 0.000000 0.984886 0.142446
C165  C     C_1   0.500000 0.000000 0.515114 0.142446
C166  C     C_1   0.500000 1.000000 0.484886 0.142428
C167  C     C_1   0.000000 0.500000 0.515114 0.142446
C168  C     C_1   0.000000 0.500000 0.484886 0.142428
C169  C     C_R   0.415817 0.915817 0.250000 0.504700
C170  C     C_R   0.000000 0.500000 0.659048 0.513315
C171  C     C_R   0.584183 0.084182 0.750000 0.504587
C172  C     C_R   0.915817 0.584183 0.250000 0.504700
C173  C     C_R   0.084182 0.415817 0.750000 0.504587
C174  C     C_R   0.584182 0.084183 0.250000 0.504700
C175  C     C_R   0.415817 0.915817 0.750000 0.504587
C176  C     C_R   0.084182 0.415817 0.250000 0.504700
C177  C     C_R   0.915817 0.584183 0.750000 0.504587
C178  C     C_R   0.415817 0.084182 0.750000 0.504587
C179  C     C_R   0.584182 0.915817 0.250000 0.504700
C180  C     C_R   0.915817 0.415817 0.750000 0.504587
C181  C     C_R   0.000000 0.500000 0.340952 0.513203
C182  C     C_R   0.084182 0.584182 0.250000 0.504700
C183  C     C_R   0.584182 0.915817 0.750000 0.504587
C184  C     C_R   0.415817 0.084182 0.250000 0.504700
C185  C     C_R   0.084182 0.584183 0.750000 0.504587
C186  C     C_R   0.915817 0.415817 0.250000 0.504700
C187  C     C_R   0.114731 0.345415 0.271462 -0.123210
C188  C     C_R   0.885228 0.654544 0.728493 -0.123538
C189  C     C_R   0.345415 0.885269 0.271462 -0.123211
C190  C     C_R   0.654544 0.114772 0.728493 -0.123538
C191  C     C_R   0.885269 0.654585 0.271462 -0.123211
C192  C     C_R   0.500000 0.000000 0.659048 0.513315
C193  C     C_R   0.114772 0.345456 0.728493 -0.123538
C194  C     C_R   0.654585 0.114731 0.271462 -0.123210
C195  C     C_R   0.345456 0.885228 0.728493 -0.123538
C196  C     C_R   0.114772 0.654544 0.728493 -0.123538
C197  C     C_R   0.885269 0.345415 0.271462 -0.123211
C198  C     C_R   0.345456 0.114772 0.728493 -0.123538
C199  C     C_R   0.654585 0.885269 0.271462 -0.123211
C200  C     C_R   0.885228 0.345456 0.728493 -0.123538
C201  C     C_R   0.114731 0.654585 0.271462 -0.123210
C202  C     C_R   0.654544 0.885228 0.728493 -0.123538
C203  C     C_R   0.500000 0.000000 0.340952 0.513203
C204  C     C_R   0.345415 0.114731 0.271462 -0.123211
C205  C     C_R   0.614772 0.845456 0.771506 -0.123538
C206  C     C_R   0.385269 0.154585 0.228538 -0.123211
C207  C     C_R   0.845456 0.385228 0.771506 -0.123538
C208  C     C_R   0.154585 0.614731 0.228538 -0.123211
C209  C     C_R   0.385228 0.154544 0.771507 -0.123538
C210  C     C_R   0.614731 0.845415 0.228538 -0.123210
C211  C     C_R   0.154544 0.614772 0.771506 -0.123538
C212  C     C_R   0.845415 0.385269 0.228538 -0.123210
C213  C     C_R   0.614731 0.154585 0.228538 -0.123211
C214  C     C_R   0.960336 0.500000 0.104091 -0.139594
C215  C     C_R   0.385228 0.845456 0.771506 -0.123538
C216  C     C_R   0.845415 0.614731 0.228538 -0.123211
C217  C     C_R   0.154544 0.385228 0.771507 -0.123538
C218  C     C_R   0.385269 0.845415 0.228538 -0.123210
C219  C     C_R   0.614772 0.154544 0.771506 -0.123538
C220  C     C_R   0.154585 0.385269 0.228538 -0.123210
C221  C     C_R   0.845456 0.614772 0.771506 -0.123538
C222  C     C_R   0.147004 0.313168 0.271466 -0.120894
C223  C     C_R   0.852972 0.686808 0.728507 -0.121141
C224  C     C_R   0.313168 0.852996 0.271466 -0.120894
H1    H     H_    0.087002 0.341807 0.288209 0.134521
H2    H     H_    0.912998 0.341808 0.288209 0.134521
H3    H     H_    0.500000 0.929559 0.882377 0.132294
H4    H     H_    0.070441 0.500000 0.117623 0.132154
H5    H     H_    0.929559 0.500000 0.882377 0.132294
H6    H     H_    0.500000 0.929559 0.117623 0.132154
H7    H     H_    0.500000 0.070441 0.882377 0.132294
H8    H     H_    0.429559 1.000000 0.617623 0.132294
H9    H     H_    0.570441 1.000000 0.382377 0.132153
H10   H     H_    0.000000 0.570441 0.617623 0.132294
H11   H     H_    0.000000 0.429559 0.382377 0.132154
H12   H     H_    0.570441 0.000000 0.617623 0.132294
H13   H     H_    0.341999 0.087193 0.711581 0.134293
H14   H     H_    0.429559 1.000000 0.382377 0.132154
H15   H     H_    0.000000 0.429559 0.617623 0.132294
H16   H     H_    0.000000 0.570441 0.382377 0.132153
H17   H     H_    0.896394 0.500000 0.066753 0.325856
H18   H     H_    0.103606 0.500000 0.933247 0.325995
H19   H     H_    0.500000 0.103606 0.066753 0.325856
H20   H     H_    0.500000 0.896394 0.933247 0.325995
H21   H     H_    0.103606 0.500000 0.066753 0.325856
H22   H     H_    0.896394 0.500000 0.933247 0.325995
H23   H     H_    0.500000 0.896394 0.066753 0.325856
H24   H     H_    0.658192 0.912997 0.288209 0.134521
H25   H     H_    0.500000 0.103606 0.933247 0.325995
H26   H     H_    0.396394 1.000000 0.566753 0.325995
H27   H     H_    0.603606 1.000000 0.433247 0.325856
H28   H     H_    0.000000 0.603606 0.566753 0.325995
H29   H     H_    0.000000 0.396394 0.433247 0.325856
H30   H     H_    0.603606 0.000000 0.566753 0.325995
H31   H     H_    0.396394 0.000000 0.433247 0.325856
H32   H     H_    0.000000 0.396394 0.566753 0.325995
H33   H     H_    0.000000 0.603606 0.433247 0.325856
H34   H     H_    0.912807 0.341999 0.711582 0.134294
H35   H     H_    0.087002 0.658192 0.288209 0.134521
H36   H     H_    0.658001 0.912807 0.711582 0.134294
H37   H     H_    0.341807 0.087002 0.288209 0.134522
H38   H     H_    0.587193 0.841999 0.788418 0.134294
H39   H     H_    0.412998 0.158193 0.211791 0.134522
H40   H     H_    0.841999 0.412807 0.788418 0.134293
H41   H     H_    0.912807 0.658001 0.711582 0.134294
H42   H     H_    0.158192 0.587002 0.211791 0.134521
H43   H     H_    0.412806 0.158001 0.788419 0.134293
H44   H     H_    0.587002 0.841808 0.211790 0.134521
H45   H     H_    0.158001 0.587193 0.788418 0.134294
H46   H     H_    0.841808 0.412998 0.211791 0.134521
H47   H     H_    0.587002 0.158192 0.211791 0.134521
H48   H     H_    0.412807 0.841999 0.788418 0.134294
H49   H     H_    0.841808 0.587003 0.211790 0.134522
H50   H     H_    0.158001 0.412806 0.788419 0.134294
H51   H     H_    0.412998 0.841808 0.211791 0.134521
H52   H     H_    0.341808 0.912998 0.288209 0.134521
H53   H     H_    0.587193 0.158001 0.788418 0.134294
H54   H     H_    0.158193 0.412998 0.211791 0.134521
H55   H     H_    0.841999 0.587193 0.788418 0.134294
H56   H     H_    0.143294 0.285193 0.287956 0.109168
H57   H     H_    0.856123 0.714224 0.711405 0.109011
H58   H     H_    0.285193 0.856706 0.287957 0.109168
H59   H     H_    0.714224 0.143877 0.711405 0.109011
H60   H     H_    0.856705 0.714807 0.287957 0.109168
H61   H     H_    0.143878 0.285777 0.711404 0.109011
H62   H     H_    0.714807 0.143294 0.287957 0.109167
H63   H     H_    0.658001 0.087193 0.711582 0.134293
H64   H     H_    0.285776 0.856123 0.711405 0.109011
H65   H     H_    0.143877 0.714224 0.711405 0.109011
H66   H     H_    0.856706 0.285193 0.287957 0.109168
H67   H     H_    0.285777 0.143878 0.711404 0.109011
H68   H     H_    0.714807 0.856705 0.287957 0.109168
H69   H     H_    0.856122 0.285776 0.711405 0.109011
H70   H     H_    0.143294 0.714807 0.287957 0.109167
H71   H     H_    0.714224 0.856123 0.711405 0.109011
H72   H     H_    0.285193 0.143294 0.287956 0.109167
H73   H     H_    0.643877 0.785776 0.788595 0.109011
H74   H     H_    0.912997 0.658192 0.288209 0.134521
H75   H     H_    0.356706 0.214807 0.212044 0.109167
H76   H     H_    0.785776 0.356123 0.788595 0.109011
H77   H     H_    0.214807 0.643294 0.212043 0.109168
H78   H     H_    0.356122 0.214223 0.788596 0.109011
H79   H     H_    0.643295 0.785193 0.212043 0.109168
H80   H     H_    0.214224 0.643877 0.788595 0.109011
H81   H     H_    0.785193 0.356706 0.212043 0.109167
H82   H     H_    0.643294 0.214807 0.212043 0.109168
H83   H     H_    0.356123 0.785776 0.788595 0.109011
H84   H     H_    0.785193 0.643295 0.212043 0.109168
H85   H     H_    0.087194 0.341999 0.711581 0.134294
H86   H     H_    0.214223 0.356122 0.788596 0.109011
H87   H     H_    0.356706 0.785193 0.212043 0.109167
H88   H     H_    0.643877 0.214224 0.788595 0.109011
H89   H     H_    0.214807 0.356706 0.212043 0.109168
H90   H     H_    0.785776 0.643877 0.788595 0.109011
H91   H     H_    0.223586 0.280102 0.195707 0.108187
H92   H     H_    0.728296 0.671780 0.751618 0.106297
H93   H     H_    0.280101 0.776415 0.195707 0.108187
H94   H     H_    0.671780 0.271704 0.751619 0.106297
H95   H     H_    0.776415 0.719899 0.195707 0.108187
H96   H     H_    0.658192 0.087002 0.288209 0.134521
H97   H     H_    0.271704 0.328220 0.751620 0.106297
H98   H     H_    0.719899 0.223585 0.195707 0.108187
H99   H     H_    0.328220 0.728296 0.751619 0.106297
H100  H     H_    0.271704 0.671780 0.751619 0.106297
H101  H     H_    0.776415 0.280101 0.195707 0.108187
H102  H     H_    0.328220 0.271704 0.751620 0.106297
H103  H     H_    0.719899 0.776415 0.195707 0.108187
H104  H     H_    0.728296 0.328220 0.751619 0.106297
H105  H     H_    0.223585 0.719899 0.195707 0.108187
H106  H     H_    0.671780 0.728296 0.751618 0.106297
H107  H     H_    0.341999 0.912807 0.711582 0.134294
H108  H     H_    0.280102 0.223586 0.195707 0.108187
H109  H     H_    0.771704 0.828220 0.748381 0.106297
H110  H     H_    0.276414 0.219898 0.304293 0.108187
H111  H     H_    0.828220 0.228296 0.748381 0.106297
H112  H     H_    0.219899 0.723585 0.304293 0.108187
H113  H     H_    0.228296 0.171780 0.748380 0.106297
H114  H     H_    0.723585 0.780100 0.304293 0.108187
H115  H     H_    0.171780 0.771704 0.748381 0.106297
H116  H     H_    0.780101 0.276415 0.304293 0.108187
H117  H     H_    0.723585 0.219899 0.304293 0.108187
H118  H     H_    0.087193 0.658001 0.711582 0.134294
H119  H     H_    0.228296 0.828220 0.748381 0.106297
H120  H     H_    0.780100 0.723585 0.304293 0.108187
H121  H     H_    0.171780 0.228296 0.748380 0.106297
H122  H     H_    0.276415 0.780101 0.304293 0.108187
H123  H     H_    0.771704 0.171780 0.748381 0.106297
H124  H     H_    0.219898 0.276414 0.304293 0.108187
H125  H     H_    0.828220 0.771704 0.748381 0.106297
H126  H     H_    0.929559 0.500000 0.117623 0.132154
H127  H     H_    0.070441 0.500000 0.882377 0.132294
H128  H     H_    0.500000 0.070441 0.117623 0.132154
O1    O     O_3   0.500000 1.000000 0.250000 -0.430184
O2    O     O_R   0.500000 0.036360 0.824790 -0.543587
O3    O     O_R   0.963640 0.500000 0.175210 -0.543672
O4    O     O_R   0.036360 0.500000 0.824790 -0.543587
O5    O     O_R   0.000000 0.536360 0.675210 -0.543587
O6    O     O_R   0.000000 0.463640 0.324790 -0.543672
O7    O     O_R   0.536360 0.000000 0.675210 -0.543587
O8    O     O_R   0.463640 0.000000 0.324790 -0.543672
O9    O     O_R   0.000000 0.463640 0.675210 -0.543587
O10   O     O_R   0.000000 0.536360 0.324790 -0.543672
O11   O     O_R   0.463640 0.000000 0.675210 -0.543587
O12   O     O_3   0.500000 1.000000 0.750000 -0.430110
O13   O     O_R   0.536360 0.000000 0.324790 -0.543672
O14   O     O_R   0.448850 0.912530 0.230420 -0.546668
O15   O     O_R   0.551150 0.087470 0.769580 -0.546760
O16   O     O_R   0.912530 0.551150 0.230420 -0.546668
O17   O     O_R   0.087470 0.448850 0.769580 -0.546760
O18   O     O_R   0.551150 0.087470 0.230420 -0.546669
O19   O     O_R   0.448850 0.912530 0.769580 -0.546760
O20   O     O_R   0.087470 0.448850 0.230420 -0.546668
O21   O     O_R   0.912530 0.551150 0.769580 -0.546760
O22   O     O_R   0.448850 0.087470 0.769580 -0.546760
O23   O     O_3   0.000000 0.500000 0.250000 -0.430184
O24   O     O_R   0.551150 0.912530 0.230420 -0.546668
O25   O     O_R   0.912530 0.448850 0.769580 -0.546760
O26   O     O_R   0.087470 0.551150 0.230420 -0.546669
O27   O     O_R   0.551150 0.912530 0.769580 -0.546760
O28   O     O_R   0.448850 0.087470 0.230420 -0.546668
O29   O     O_R   0.087470 0.551150 0.769580 -0.546760
O30   O     O_R   0.912530 0.448850 0.230420 -0.546668
O31   O     O_R   0.948850 0.412530 0.730420 -0.546760
O32   O     O_R   0.051150 0.587470 0.269580 -0.546668
O33   O     O_R   0.412530 0.051150 0.730420 -0.546760
O34   O     O_3   0.000000 0.500000 0.750000 -0.430110
O35   O     O_R   0.587470 0.948850 0.269580 -0.546669
O36   O     O_R   0.051150 0.587470 0.730420 -0.546760
O37   O     O_R   0.948850 0.412530 0.269580 -0.546669
O38   O     O_R   0.587470 0.948850 0.730420 -0.546760
O39   O     O_R   0.412530 0.051150 0.269580 -0.546668
O40   O     O_R   0.948850 0.587470 0.269580 -0.546669
O41   O     O_R   0.051150 0.412530 0.730420 -0.546760
O42   O     O_R   0.412530 0.948850 0.269580 -0.546669
O43   O     O_R   0.587470 0.051150 0.730420 -0.546760
O44   O     O_R   0.051150 0.412530 0.269580 -0.546668
O45   O     O_R   0.500000 0.036360 0.175210 -0.543672
O46   O     O_R   0.948850 0.587470 0.730420 -0.546760
O47   O     O_R   0.587470 0.051150 0.269580 -0.546668
O48   O     O_R   0.412530 0.948850 0.730420 -0.546760
O49   O     O_3   0.921315 0.500000 0.050765 -0.672428
O50   O     O_3   0.078685 0.500000 0.949235 -0.672302
O51   O     O_3   0.500000 0.078685 0.050765 -0.672429
O52   O     O_3   0.500000 0.921315 0.949235 -0.672300
O53   O     O_3   0.078685 0.500000 0.050765 -0.672429
O54   O     O_3   0.921315 0.500000 0.949235 -0.672300
O55   O     O_3   0.500000 0.921315 0.050765 -0.672428
O56   O     O_R   0.500000 0.963640 0.824790 -0.543586
O57   O     O_3   0.500000 0.078685 0.949235 -0.672302
O58   O     O_3   0.421315 1.000000 0.550765 -0.672302
O59   O     O_3   0.578685 1.000000 0.449235 -0.672428
O60   O     O_3   0.000000 0.578685 0.550765 -0.672300
O61   O     O_3   0.000000 0.421315 0.449235 -0.672429
O62   O     O_3   0.578685 0.000000 0.550765 -0.672300
O63   O     O_3   0.421315 0.000000 0.449235 -0.672429
O64   O     O_3   0.000000 0.421315 0.550765 -0.672302
O65   O     O_3   0.000000 0.578685 0.449235 -0.672428
O66   O     O_R   0.036360 0.500000 0.175210 -0.543672
O67   O     O_R   0.963640 0.500000 0.824790 -0.543586
O68   O     O_R   0.500000 0.963640 0.175210 -0.543672
Zn1   Zn    Zn3+2 0.448060 0.000000 0.278050 0.937322
Zn2   Zn    Zn3+2 0.051940 0.500000 0.221950 0.937322
Zn3   Zn    Zn3+2 0.500000 0.051940 0.778050 0.937169
Zn4   Zn    Zn3+2 0.500000 0.948060 0.221950 0.937322
Zn5   Zn    Zn3+2 0.051940 0.500000 0.778050 0.937169
Zn6   Zn    Zn3+2 0.948060 0.500000 0.221950 0.937322
Zn7   Zn    Zn3+2 0.500000 0.948060 0.778050 0.937169
Zn8   Zn    Zn3+2 0.500000 0.051940 0.221950 0.937322
Zn9   Zn    Zn3+2 0.551940 1.000000 0.721950 0.937169
Zn10  Zn    Zn3+2 0.000000 0.551940 0.278050 0.937322
Zn11  Zn    Zn3+2 0.000000 0.448060 0.721950 0.937169
Zn12  Zn    Zn3+2 0.551940 0.000000 0.278050 0.937322
Zn13  Zn    Zn3+2 0.448060 1.000000 0.721950 0.937169
Zn14  Zn    Zn3+2 0.000000 0.448060 0.278050 0.937322
Zn15  Zn    Zn3+2 0.000000 0.551940 0.721950 0.937169
Zn16  Zn    Zn3+2 0.948060 0.500000 0.778050 0.937169

loop_
_geom_bond_atom_site_label_1
_geom_bond_atom_site_label_2
_ccdc_geom_bond_type
C28   C216  A    
O26   Zn2   S    
C54   C189  A    
C57   C145  A    
C113  C151  A    
C75   C117  A    
C46   C129  A    
C216  H49   S    
C94   H115  S    
O18   Zn8   S    
H26   O58   S    
C69   C206  A    
C89   H111  S    
C148  O3    A    
C73   C119  A    
C80   H101  S    
O38   Zn9   S    
C60   C215  A    
C139  O64   S    
C186  O37   A    
C58   C217  A    
C205  H38   S    
C176  O44   A    
C53   C221  A    
C14   C201  A    
C33   C36   A    
C23   C43   A    
H18   O50   S    
C209  H43   S    
C7    C42   A    
C93   H114  S    
C7    H64   S    
C66   C201  A    
C224  H58   S    
C84   H105  S    
C24   C127  A    
C52   C187  A    
C91   C100  A    
C97   C115  A    
C149  C203  S    
O2    Zn3   S    
C67   C205  A    
C68   H7    S    
C22   C47   A    
C66   C182  S    
C56   C191  A    
H33   O65   S    
C141  H15   S    
O1    Zn12  S    
C18   H75   S    
C54   C169  S    
C64   C210  A    
C102  H123  S    
C187  C222  A    
C158  C167  S    
C54   C218  A    
C17   H73   S    
C104  H125  S    
O31   Zn11  S    
C124  C147  A    
C25   H81   S    
C1    O45   A    
C86   H108  S    
C124  C137  A    
C130  O55   S    
O56   Zn7   S    
C94   C97   A    
C53   C177  S    
C32   C34   A    
C142  C151  A    
C68   C131  A    
C174  O47   A    
C198  H13   S    
O46   Zn15  S    
C213  H47   S    
C112  O56   A    
C61   C196  A    
C72   C84   A    
C38   C119  S    
C126  C154  A    
C2    H127  S    
C12   C200  A    
O12   Zn3   S    
C46   H5    S    
C29   H86   S    
C6    C194  A    
C68   C146  A    
C12   H69   S    
C123  C152  A    
C185  O36   A    
O4    Zn5   S    
C182  O32   A    
C138  O63   S    
C134  O60   S    
C188  C223  A    
C194  H96   S    
C46   C144  A    
C59   C213  A    
C65   C180  S    
C39   C118  S    
C206  H39   S    
C58   C193  A    
H27   O59   S    
C159  O4    A    
C57   H6    S    
C150  C170  S    
C95   H116  S    
C22   C210  A    
C89   C108  A    
C160  C168  S    
C124  H12   S    
H19   O51   S    
C131  O57   S    
C81   C110  A    
C123  C214  A    
C101  H10   S    
C211  H45   S    
C62   C212  A    
C96   C116  A    
C140  O65   S    
C16   C204  A    
C73   C83   A    
C102  C119  A    
C99   H121  S    
C72   H93   S    
C171  O43   A    
C218  H51   S    
C95   C96   A    
C2    C144  A    
C1    C145  S    
C16   C51   A    
C13   C145  A    
O13   Zn12  S    
C19   H76   S    
C207  H40   S    
H25   O57   S    
C26   C213  A    
C156  C165  S    
H30   O62   S    
H23   O55   S    
C87   H109  S    
O7    Zn9   S    
C84   C107  A    
H20   O52   S    
C133  O59   S    
O14   Zn4   S    
C175  O48   A    
C128  C152  A    
C112  C146  S    
O23   Zn14  S    
C30   H87   S    
C152  C161  S    
O21   Zn16  S    
C51   C105  S    
C30   C218  A    
C197  H2    S    
C173  O41   A    
C34   C122  S    
C28   H84   S    
O20   Zn2   S    
C203  O8    A    
C85   H106  S    
C9    C197  A    
C141  C150  A    
C98   C118  A    
O25   Zn16  S    
C21   C45   A    
C8    H65   S    
C185  O29   A    
C143  C148  S    
C74   C118  A    
O40   Zn10  S    
C82   C109  A    
H31   O63   S    
C57   C130  A    
H32   O64   S    
C64   C179  S    
C98   H120  S    
C191  H74   S    
C55   C219  A    
C47   C109  S    
O45   Zn8   S    
C177  O21   A    
C90   H9    S    
C20   C49   A    
O5    Zn15  S    
C99   C117  A    
C70   C122  A    
O28   Zn8   S    
C212  H46   S    
C176  O20   A    
O12   Zn9   S    
C72   C120  A    
C10   C45   A    
C61   C185  S    
C13   H128  S    
C77   H99   S    
C130  C154  A    
O23   Zn2   S    
C92   H113  S    
C32   C220  A    
C171  O15   A    
C199  H24   S    
C134  C158  A    
C125  O50   S    
C26   H82   S    
O12   Zn7   S    
C85   C106  A    
C71   C121  A    
C96   H117  S    
C76   C80   A    
C62   C197  A    
C204  H37   S    
C65   C207  A    
C180  O25   A    
C188  H41   S    
C17   C205  A    
C91   H112  S    
C77   C115  A    
C140  C160  A    
C129  C153  A    
C88   C105  A    
C139  C141  A    
C27   C42   A    
C92   C110  A    
C208  H42   S    
C75   H97   S    
C29   C40   A    
C4    H60   S    
O12   Zn13  S    
C186  O30   A    
C133  C157  A    
C56   C216  A    
C195  H107  S    
O34   Zn15  S    
O36   Zn15  S    
C136  C160  A    
C170  O5    A    
C69   C204  A    
C88   H110  S    
O67   Zn16  S    
C40   C117  S    
C178  O22   A    
O11   Zn13  S    
C60   C195  A    
C93   C109  A    
C33   C221  A    
C175  O19   A    
C11   C47   A    
C4    C191  A    
C8    C43   A    
C103  H124  S    
C12   C48   A    
C59   C174  S    
C88   C103  A    
C161  C162  T    
C189  C224  A    
C77   C78   A    
C142  H16   S    
C63   C178  S    
C16   H72   S    
O42   Zn1   S    
C136  O61   S    
C70   H91   S    
C53   C188  A    
C140  C142  A    
O41   Zn11  S    
C43   C114  S    
C9    H66   S    
C187  H1    S    
C159  O67   A    
C173  O17   A    
C101  C150  A    
C83   C108  A    
C21   H78   S    
C97   H119  S    
C179  O35   A    
C23   H80   S    
O8    Zn1   S    
C163  C164  T    
C18   C51   A    
O44   Zn14  S    
C126  O51   S    
C215  H48   S    
C24   H3    S    
O29   Zn5   S    
C52   C176  S    
C71   H92   S    
C148  O66   A    
C129  O54   S    
C78   H100  S    
C56   C172  S    
C27   C215  A    
C78   C114  A    
C74   C82   A    
C184  O28   A    
C55   C171  S    
C151  C181  S    
C31   C219  A    
H28   O60   S    
C35   H4    S    
O68   Zn4   S    
C184  O39   A    
C63   C209  A    
C3    C190  A    
C127  C155  A    
C167  C168  T    
C90   C133  A    
C45   C110  S    
C79   C147  A    
C214  H126  S    
C28   C39   A    
C30   C37   A    
C157  C166  S    
C25   C212  A    
C201  H35   S    
C221  H55   S    
C202  H36   S    
C65   C200  A    
C66   C208  A    
C128  O53   S    
C182  O26   A    
C193  H85   S    
C144  C159  S    
C36   C223  A    
C137  O62   S    
C13   C126  A    
C189  H52   S    
C31   H88   S    
C58   C173  S    
O15   Zn3   S    
C174  O18   A    
C7    C195  A    
O24   Zn4   S    
C5    C193  A    
C113  H11   S    
H21   O53   S    
C123  O49   S    
C1    O68   A    
C132  O58   S    
C10   H67   S    
O1    Zn4   S    
C127  O52   S    
C20   H77   S    
C63   C198  A    
C153  C162  S    
C131  C155  A    
C22   H79   S    
C24   C146  A    
C48   C108  S    
C23   C211  A    
C32   H89   S    
C80   C111  A    
C21   C209  A    
C8    C196  A    
C35   C128  A    
C11   C199  A    
C79   H8    S    
C87   C104  A    
C44   C111  S    
C42   C115  S    
O9    Zn11  S    
C64   C199  A    
H17   O49   S    
C50   C106  S    
C60   C175  S    
C103  C122  A    
C35   C143  A    
C223  H57   S    
C135  C138  A    
C165  C166  T    
C89   C102  A    
C14   H70   S    
O22   Zn3   S    
C73   H94   S    
C94   C114  A    
C49   C107  S    
O3    Zn6   S    
C192  O7    A    
C101  C134  A    
C87   C106  A    
C15   H71   S    
O1    Zn8   S    
C6    H62   S    
O23   Zn10  S    
C170  O9    A    
O37   Zn14  S    
C14   C49   A    
O34   Zn5   S    
O35   Zn12  S    
C67   C183  S    
C61   C211  A    
C15   C50   A    
C132  C156  A    
O66   Zn2   S    
O16   Zn6   S    
C139  C158  A    
C6    C41   A    
C100  C120  A    
C178  O33   A    
C196  H118  S    
C5    H61   S    
C177  O46   A    
C29   C217  A    
C36   C121  S    
C71   C85   A    
C19   C207  A    
C169  O42   A    
O47   Zn12  S    
C90   C149  A    
C10   C198  A    
C25   C44   A    
C125  C153  A    
C59   C194  A    
C217  H50   S    
C52   C220  A    
C27   H83   S    
C55   C190  A    
O43   Zn9   S    
C154  C163  S    
C3    C38   A    
O19   Zn7   S    
C19   C48   A    
C75   C81   A    
O17   Zn5   S    
C104  C121  A    
O23   Zn6   S    
C135  C149  A    
O33   Zn13  S    
C181  O10   A    
C113  C136  A    
C137  C156  A    
C2    C125  A    
C33   H90   S    
O30   Zn6   S    
C183  O38   A    
C4    C39   A    
C147  C192  S    
O10   Zn10  S    
C100  H122  S    
C82   H103  S    
O34   Zn11  S    
O34   Zn16  S    
C143  C214  A    
C180  O31   A    
C135  H14   S    
C220  H54   S    
O6    Zn14  S    
C183  O27   A    
C203  O13   A    
C86   C105  A    
C20   C208  A    
C41   C116  S    
C74   H95   S    
C70   C86   A    
C15   C202  A    
H22   O54   S    
C81   H102  S    
C11   H68   S    
C9    C44   A    
C210  H44   S    
C83   H104  S    
C37   C224  A    
C17   C50   A    
C172  O40   A    
C31   C38   A    
C200  H34   S    
C155  C164  S    
O32   Zn10  S    
C62   C186  S    
C181  O6    A    
C18   C206  A    
O39   Zn1   S    
C179  O24   A    
C67   C202  A    
C95   C111  A    
C138  C157  A    
C37   C120  S    
C76   H98   S    
O1    Zn1   S    
C79   C132  A    
C172  O16   A    
C3    H59   S    
C76   C116  A    
C169  O14   A    
H29   O61   S    
C69   C184  S    
C112  O2    A    
O48   Zn13  S    
C92   C99   A    
C192  O11   A    
C219  H53   S    
C190  H63   S    
C5    C40   A    
C222  H56   S    
C93   C98   A    
O27   Zn7   S    
C34   C222  A    
C26   C41   A    
C91   C107  A    
