data_str_m2_o15_o23_f0_nbo.sym.57
_audit_creation_date              2013-03-05T15:47:27-0500
_audit_creation_method            fapswitch 2.2
_symmetry_space_group_name_H-M    P1
_symmetry_Int_Tables_number       1
_space_group_crystal_system       triclinic
_cell_length_a                    38.797857
_cell_length_b                    21.827348
_cell_length_c                    21.834551
_cell_angle_alpha                 89.996905
_cell_angle_beta                  124.450119
_cell_angle_gamma                 90.001392
_cell_volume                      15247.7689867

loop_
_atom_site_label
_atom_site_type_symbol
_atom_site_description
_atom_site_fract_x
_atom_site_fract_y
_atom_site_fract_z
_atom_type_partial_charge
O1    O     O_R   0.000000 0.947790 0.090180 -0.579971
O2    O     O_R   0.000000 0.947790 0.909820 -0.579973
O3    O     O_R   0.500000 0.447790 0.090180 -0.580020
O4    O     O_R   0.500000 0.447790 0.909820 -0.579923
O5    O     O_R   1.000000 0.052210 0.090190 -0.570240
O6    O     O_R   0.000000 0.052210 0.909810 -0.570246
O7    O     O_R   0.500000 0.552210 0.090190 -0.570288
O8    O     O_R   0.500000 0.552210 0.909810 -0.570222
C1    C     C_R   0.999555 0.999829 0.117844 0.768235
C2    C     C_R   0.000448 0.999832 0.882159 0.768216
C3    C     C_R   0.499545 0.499827 0.117835 0.768172
C4    C     C_R   0.500440 0.499833 0.882152 0.768278
O9    O     O_R   0.060280 0.947790 0.060280 -0.558821
O10   O     O_R   0.939720 0.947790 0.939720 -0.558810
O11   O     O_R   0.560280 0.447790 0.060280 -0.558784
O12   O     O_R   0.439720 0.447790 0.939720 -0.558833
O13   O     O_R   0.060280 0.052210 0.060300 -0.577696
O14   O     O_R   0.939720 0.052210 0.939700 -0.577658
O15   O     O_R   0.560280 0.552210 0.060300 -0.577606
O16   O     O_R   0.439720 0.552210 0.939700 -0.577790
C5    C     C_R   0.079852 0.000024 0.079719 0.784111
C6    C     C_R   0.920148 0.000024 0.920279 0.784098
C7    C     C_R   0.579852 0.500023 0.079726 0.784070
C8    C     C_R   0.420147 0.500026 0.920290 0.784173
Cu1   Cu    Cu3+1 0.000000 0.938180 0.000000 1.039716
Cu2   Cu    Cu3+1 0.500000 0.438180 0.000000 1.039730
Cu3   Cu    Cu3+1 0.000000 0.061820 0.000000 1.022104
Cu4   Cu    Cu3+1 0.500000 0.561820 0.000000 1.022048
C9    C     C_3   0.226076 0.947762 0.265877 -0.208630
C10   C     C_3   0.773920 0.947621 0.734312 -0.208584
C11   C     C_3   0.726083 0.447290 0.265291 -0.208609
C12   C     C_3   0.273933 0.448222 0.733588 -0.208669
C13   C     C_3   0.224606 0.063869 0.252903 -0.409886
C14   C     C_3   0.775393 0.063756 0.746858 -0.409896
C15   C     C_3   0.724607 0.563510 0.253634 -0.410095
C16   C     C_3   0.275393 0.564192 0.747808 -0.409686
C17   C     C_3   0.274069 0.066338 0.306083 0.260802
C18   C     C_3   0.725930 0.066221 0.693687 0.260870
C19   C     C_3   0.774071 0.565954 0.306808 0.260892
C20   C     C_3   0.225931 0.566669 0.694600 0.260891
H1    H     H_    0.288012 0.947090 0.373589 0.244112
H2    H     H_    0.711985 0.946799 0.626609 0.244136
H3    H     H_    0.788024 0.446114 0.372978 0.244136
H4    H     H_    0.212004 0.448009 0.625864 0.244096
H5    H     H_    0.211075 0.102387 0.212959 0.232161
H6    H     H_    0.788933 0.102360 0.786664 0.232189
H7    H     H_    0.711060 0.602315 0.214121 0.232185
H8    H     H_    0.288891 0.602426 0.788153 0.232130
H9    H     H_    0.210588 0.070200 0.284866 0.221229
H10   H     H_    0.789405 0.069918 0.714865 0.221222
H11   H     H_    0.710604 0.569310 0.285687 0.221158
H12   H     H_    0.289436 0.571040 0.715966 0.221273
C21   C     C_1   0.375338 0.001143 0.375327 -0.088468
C22   C     C_1   0.624662 0.001139 0.624674 -0.088367
C23   C     C_1   0.875338 0.501127 0.375325 -0.088284
C24   C     C_1   0.124661 0.501156 0.624668 -0.088718
C25   C     C_3   0.208516 0.002277 0.209480 0.012147
C26   C     C_3   0.791484 0.002267 0.790504 0.012034
C27   C     C_3   0.708515 0.502236 0.209518 0.012051
C28   C     C_3   0.291484 0.502309 0.790566 0.012187
C29   C     C_3   0.274746 0.948471 0.313295 -0.406082
C30   C     C_3   0.725252 0.948340 0.686895 -0.406179
C31   C     C_3   0.774751 0.448023 0.312703 -0.406276
C32   C     C_3   0.225264 0.448898 0.686164 -0.405877
C33   C     C_3   0.291459 0.004943 0.293726 0.066554
C34   C     C_3   0.708540 0.004934 0.706262 0.066520
C35   C     C_3   0.791460 0.504899 0.293762 0.066574
C36   C     C_3   0.208539 0.504972 0.706305 0.066355
C37   C     C_3   0.274553 0.999700 0.209918 -0.509825
C38   C     C_3   0.725449 0.999923 0.790084 -0.509918
C39   C     C_3   0.774545 0.500406 0.209901 -0.509957
C40   C     C_3   0.225434 0.499022 0.790047 -0.509692
C41   C     C_3   0.226069 0.993902 0.160811 0.212675
C42   C     C_3   0.773933 0.994130 0.839203 0.212672
C43   C     C_3   0.726061 0.494613 0.160749 0.212603
C44   C     C_3   0.273917 0.493204 0.839112 0.212886
C45   C     C_1   0.337668 0.002612 0.338438 0.055694
C46   C     C_1   0.662332 0.002606 0.661561 0.055868
C47   C     C_1   0.837668 0.502584 0.338443 0.055954
C48   C     C_1   0.162331 0.502632 0.661563 0.055177
C49   C     C_1   0.162328 0.001006 0.162481 0.018232
C50   C     C_1   0.837672 0.001000 0.837504 0.018374
C51   C     C_1   0.662327 0.500979 0.162516 0.018669
C52   C     C_1   0.337672 0.501029 0.837563 0.017837
C53   C     C_1   0.124658 0.000271 0.124554 -0.072219
C54   C     C_1   0.875342 0.000269 0.875437 -0.072100
C55   C     C_1   0.624658 0.500261 0.124576 -0.071900
C56   C     C_1   0.375342 0.500280 0.875476 -0.072536
H13   H     H_    0.218526 0.946235 0.138475 0.153841
H14   H     H_    0.781481 0.946522 0.861719 0.153973
H15   H     H_    0.718514 0.447120 0.137873 0.154258
H16   H     H_    0.281451 0.445377 0.860915 0.153362
H17   H     H_    0.288192 0.958567 0.200997 0.179179
H18   H     H_    0.711814 0.958869 0.799153 0.179243
H19   H     H_    0.788179 0.459531 0.200513 0.179323
H20   H     H_    0.211787 0.457660 0.798524 0.179055
H21   H     H_    0.215791 0.904475 0.232922 0.155908
H22   H     H_    0.784207 0.904418 0.767424 0.156024
H23   H     H_    0.715795 0.404265 0.231849 0.156274
H24   H     H_    0.284223 0.404697 0.766076 0.155560
H25   H     H_    0.285907 0.905722 0.301955 0.166293
H26   H     H_    0.714090 0.905674 0.698386 0.166305
H27   H     H_    0.785911 0.405534 0.300879 0.166312
H28   H     H_    0.214106 0.405914 0.697058 0.166314
H29   H     H_    0.284967 0.039696 0.192811 0.226755
H30   H     H_    0.715035 0.040010 0.807046 0.226702
H31   H     H_    0.784954 0.540706 0.193239 0.226676
H32   H     H_    0.215023 0.538725 0.807565 0.226908
C57   C     C_R   0.070451 0.043732 0.255229 -0.129749
C58   C     C_R   0.929560 0.043768 0.744781 -0.129900
C59   C     C_R   0.570396 0.543900 0.255163 -0.130197
C60   C     C_R   0.429518 0.543636 0.744729 -0.129320
C61   C     C_R   0.102371 0.074317 0.317569 -0.191732
C62   C     C_R   0.897643 0.074363 0.682443 -0.191687
C63   C     C_R   0.602288 0.574556 0.317466 -0.191691
C64   C     C_R   0.397578 0.574176 0.682362 -0.191752
C65   C     C_R   0.096922 0.091934 0.372542 -0.171386
C66   C     C_R   0.903091 0.091970 0.627464 -0.171223
C67   C     C_R   0.596833 0.592143 0.372439 -0.171053
C68   C     C_R   0.403022 0.591807 0.627384 -0.171580
C69   C     C_R   0.060548 0.075600 0.367967 0.376043
C70   C     C_R   0.939461 0.075620 0.632033 0.375988
C71   C     C_R   0.560483 0.575716 0.367901 0.375957
C72   C     C_R   0.439411 0.575530 0.631983 0.376099
C73   C     C_R   0.031189 0.034337 0.311212 -0.031431
C74   C     C_R   0.968815 0.034351 0.688789 -0.031450
C75   C     C_R   0.531159 0.534402 0.311181 -0.031497
C76   C     C_R   0.468792 0.534302 0.688765 -0.031389
C77   C     C_R   0.033872 0.025443 0.250026 0.033822
C78   C     C_R   0.966135 0.025463 0.749979 0.033864
C79   C     C_R   0.533841 0.525521 0.249993 0.033963
C80   C     C_R   0.466111 0.525401 0.749953 0.033716
C81   C     C_R   0.999896 0.001226 0.313120 -0.157641
C82   C     C_R   0.000102 0.001227 0.686878 -0.157632
C83   C     C_R   0.499904 0.501219 0.313133 -0.157593
C84   C     C_R   0.500107 0.501232 0.686887 -0.157656
C85   C     C_R   0.969513 0.965727 0.250474 0.076720
C86   C     C_R   0.030474 0.965706 0.749514 0.076718
C87   C     C_R   0.469581 0.465604 0.250561 0.076683
C88   C     C_R   0.530523 0.465797 0.749577 0.076749
C89   C     C_R   0.967133 0.970140 0.183809 0.016011
C90   C     C_R   0.032858 0.970116 0.816182 0.015997
C91   C     C_R   0.467192 0.469985 0.183884 0.015960
C92   C     C_R   0.532900 0.470230 0.816237 0.016045
C93   C     C_R   0.999913 0.998996 0.184645 -0.110894
C94   C     C_R   0.000090 0.999001 0.815357 -0.110891
C95   C     C_R   0.499912 0.498981 0.184650 -0.110958
C96   C     C_R   0.500088 0.499011 0.815359 -0.110856
C97   C     C_R   0.941610 0.925019 0.252299 -0.216202
C98   C     C_R   0.058362 0.924979 0.747674 -0.216191
C99   C     C_R   0.441754 0.424802 0.252485 -0.216220
C100  C     C_R   0.558467 0.425139 0.747810 -0.216180
C101  C     C_R   0.908918 0.897029 0.187893 -0.192877
C102  C     C_R   0.091040 0.896949 0.812068 -0.192857
C103  C     C_R   0.409136 0.396620 0.188160 -0.192770
C104  C     C_R   0.591199 0.397249 0.812262 -0.192932
C105  C     C_R   0.903278 0.907595 0.119666 0.405230
C106  C     C_R   0.096682 0.907499 0.880297 0.405273
C107  C     C_R   0.403490 0.407101 0.119915 0.405335
C108  C     C_R   0.596836 0.407861 0.880477 0.405181
C109  C     C_R   0.932658 0.943635 0.118140 -0.200107
C110  C     C_R   0.067321 0.943574 0.881839 -0.200107
C111  C     C_R   0.432777 0.443299 0.118287 -0.200155
C112  C     C_R   0.567407 0.443821 0.881946 -0.200085
H33   H     H_    0.074973 0.033872 0.211669 0.137879
H34   H     H_    0.925038 0.033913 0.788343 0.137887
H35   H     H_    0.574926 0.534051 0.211610 0.137933
H36   H     H_    0.425001 0.533772 0.788296 0.137878
H37   H     H_    0.130269 0.087799 0.320975 0.178389
H38   H     H_    0.869749 0.087857 0.679041 0.178422
H39   H     H_    0.630166 0.588107 0.320844 0.178422
H40   H     H_    0.369669 0.587615 0.678938 0.178371
H41   H     H_    0.119999 0.121706 0.416468 0.190643
H42   H     H_    0.880017 0.121748 0.583538 0.190716
H43   H     H_    0.619883 0.621961 0.416336 0.190707
H44   H     H_    0.379927 0.621550 0.583435 0.190644
H45   H     H_    0.944947 0.912700 0.303245 0.173109
H46   H     H_    0.055022 0.912670 0.696724 0.173087
H47   H     H_    0.445104 0.412548 0.303460 0.173003
H48   H     H_    0.555137 0.412783 0.696881 0.173168
H49   H     H_    0.887906 0.867130 0.191618 0.190042
H50   H     H_    0.112038 0.867029 0.808330 0.190018
H51   H     H_    0.388192 0.366627 0.191965 0.190001
H52   H     H_    0.612247 0.367397 0.808583 0.190053
H53   H     H_    0.928456 0.950399 0.065277 0.173175
H54   H     H_    0.071527 0.950333 0.934707 0.173202
H55   H     H_    0.428552 0.450032 0.065402 0.173344
H56   H     H_    0.571597 0.450602 0.934797 0.173077
O17   O     O_R   0.500000 0.910000 0.552220 -0.576510
O18   O     O_R   0.500000 0.910000 0.447780 -0.576477
O19   O     O_R   0.000000 0.410000 0.552220 -0.576441
O20   O     O_R   0.000000 0.410000 0.447780 -0.576547
C113  C     C_R   0.500004 0.881891 0.500006 0.771103
C114  C     C_R   0.999999 0.381891 0.500001 0.771108
O21   O     O_R   0.439720 0.000200 0.491920 -0.562098
O22   O     O_R   0.560280 0.000200 0.508080 -0.562024
O23   O     O_R   0.939720 0.500200 0.491920 -0.561846
O24   O     O_R   0.060280 0.500200 0.508080 -0.562310
O25   O     O_R   0.439720 0.000170 0.387540 -0.583497
O26   O     O_R   0.560280 0.000170 0.612460 -0.583543
O27   O     O_R   0.939720 0.500170 0.387540 -0.583628
O28   O     O_R   0.060280 0.500170 0.612460 -0.583403
C115  C     C_R   0.420144 0.000199 0.420085 0.784353
C116  C     C_R   0.579855 0.000198 0.579915 0.784335
C117  C     C_R   0.920144 0.500196 0.420085 0.784319
C118  C     C_R   0.079855 0.500202 0.579914 0.784405
Cu5   Cu    Cu3+1 0.500000 0.000200 0.561810 1.010743
Cu6   Cu    Cu3+1 0.500000 0.000200 0.438190 1.010865
Cu7   Cu    Cu3+1 1.000000 0.500200 0.561810 1.011066
Cu8   Cu    Cu3+1 0.000000 0.500200 0.438190 1.010494
O29   O     O_R   0.500000 0.090400 0.552190 -0.579591
O30   O     O_R   0.500000 0.090400 0.447810 -0.579567
O31   O     O_R   0.000000 0.590400 0.552190 -0.579525
O32   O     O_R   1.000000 0.590400 0.447810 -0.579643
C119  C     C_R   0.500000 0.118734 0.499999 0.776754
C120  C     C_R   1.000000 0.618734 0.499999 0.776746
O33   O     O_R   0.965090 0.909820 0.465090 -0.595800
O34   O     O_R   0.034910 0.909820 0.534910 -0.595762
O35   O     O_R   0.465090 0.409820 0.465090 -0.595776
O36   O     O_R   0.534910 0.409820 0.534910 -0.595780
C121  C     C_R   0.000000 0.881029 0.499999 0.757169
C122  C     C_R   0.500000 0.381029 0.500000 0.757158
O37   O     O_R   0.965110 0.000030 0.374950 -0.594366
O38   O     O_R   0.034890 0.000030 0.625050 -0.594354
O39   O     O_R   0.465110 0.500030 0.374950 -0.594251
O40   O     O_R   0.534890 0.500030 0.625050 -0.594443
O41   O     O_R   0.034890 0.000000 0.444730 -0.576340
O42   O     O_R   0.965110 0.000000 0.555270 -0.576361
O43   O     O_R   0.534890 0.500000 0.444730 -0.576419
O44   O     O_R   0.465110 0.500000 0.555270 -0.576296
C123  C     C_R   0.999988 0.000588 0.380698 0.830816
C124  C     C_R   0.000011 0.000591 0.619301 0.830814
C125  C     C_R   0.499990 0.500598 0.380702 0.830906
C126  C     C_R   0.500012 0.500584 0.619304 0.830743
Cu9   Cu    Cu3+1 0.958680 0.000030 0.458700 1.021959
Cu10  Cu    Cu3+1 0.041320 0.000030 0.541300 1.021987
Cu11  Cu    Cu3+1 0.458680 0.500030 0.458700 1.022093
Cu12  Cu    Cu3+1 0.541320 0.500030 0.541300 1.021870
O45   O     O_R   0.965120 0.090230 0.465150 -0.561038
O46   O     O_R   0.034880 0.090230 0.534850 -0.561061
O47   O     O_R   0.465120 0.590230 0.465150 -0.561078
O48   O     O_R   0.534880 0.590230 0.534850 -0.561039
C127  C     C_R   0.000000 0.119325 0.499999 0.934391
C128  C     C_R   0.499998 0.619326 0.500001 0.934415
H57   H     H_    0.623147 0.809798 0.733342 0.151001
H58   H     H_    0.376816 0.809853 0.266721 0.150987
H59   H     H_    0.123157 0.309818 0.733324 0.151018
H60   H     H_    0.876842 0.309829 0.266679 0.150986
C129  C     C_R   0.432789 0.815586 0.377023 -0.133203
C130  C     C_R   0.567195 0.815557 0.623016 -0.133210
C131  C     C_R   0.932800 0.315573 0.376999 -0.133168
C132  C     C_R   0.067198 0.315568 0.623005 -0.133256
C133  C     C_R   0.402563 0.784809 0.312814 -0.125268
C134  C     C_R   0.597401 0.784767 0.687237 -0.125210
C135  C     C_R   0.902588 0.284791 0.312781 -0.125243
C136  C     C_R   0.097412 0.284781 0.687222 -0.125223
C137  C     C_R   0.906105 0.222198 0.307159 -0.120573
C138  C     C_R   0.093899 0.222186 0.692841 -0.120601
C139  C     C_R   0.406067 0.722214 0.307189 -0.120641
C140  C     C_R   0.593876 0.722174 0.692855 -0.120548
C141  C     C_R   0.938678 0.189741 0.367056 -0.049798
C142  C     C_R   0.061327 0.189732 0.632943 -0.049778
C143  C     C_R   0.438642 0.689750 0.367074 -0.049656
C144  C     C_R   0.561303 0.689725 0.632953 -0.049893
C145  C     C_R   0.968634 0.219323 0.435196 0.094118
C146  C     C_R   0.031368 0.219319 0.564805 0.094156
C147  C     C_R   0.468616 0.719327 0.435208 0.094193
C148  C     C_R   0.531355 0.719316 0.564812 0.094096
C149  C     C_R   0.467147 0.783827 0.437699 0.067045
C150  C     C_R   0.532838 0.783814 0.562324 0.067087
C151  C     C_R   0.967156 0.283821 0.437686 0.067083
C152  C     C_R   0.032843 0.283818 0.562318 0.067053
C153  C     C_R   0.000001 0.186761 0.500000 -0.105669
C154  C     C_R   0.499990 0.686761 0.500005 -0.105650
C155  C     C_R   0.499999 0.815429 0.500007 -0.154863
C156  C     C_R   0.999999 0.315429 0.500003 -0.154872
H61   H     H_    0.428775 0.864469 0.378292 0.135010
H62   H     H_    0.571221 0.864439 0.621752 0.135001
H63   H     H_    0.928778 0.364455 0.378265 0.135019
H64   H     H_    0.071218 0.364450 0.621741 0.135019
H65   H     H_    0.883416 0.198533 0.256179 0.159776
H66   H     H_    0.116590 0.198518 0.743819 0.159784
H67   H     H_    0.383366 0.698552 0.256215 0.159767
H68   H     H_    0.616560 0.698503 0.743838 0.159784
H69   H     H_    0.940094 0.141740 0.357302 0.175129
H70   H     H_    0.059915 0.141728 0.642698 0.175137
H71   H     H_    0.440043 0.641748 0.357310 0.175196
H72   H     H_    0.559878 0.641724 0.642703 0.175082
H73   H     H_    0.388770 0.194005 0.523091 0.186292
H74   H     H_    0.611217 0.194022 0.476868 0.186271
H75   H     H_    0.888780 0.694009 0.523121 0.186287
H76   H     H_    0.111228 0.694018 0.476900 0.186343
C157  C     C_R   0.561533 0.186806 0.492810 -0.121654
C158  C     C_R   0.438459 0.186797 0.507163 -0.121530
C159  C     C_R   0.061539 0.686804 0.492829 -0.121204
C160  C     C_R   0.938464 0.686799 0.507181 -0.121931
C161  C     C_R   0.587226 0.218307 0.477923 -0.086612
C162  C     C_R   0.412764 0.218293 0.522044 -0.086435
C163  C     C_R   0.087235 0.718304 0.477948 -0.085733
C164  C     C_R   0.912772 0.718296 0.522068 -0.087104
C165  C     C_R   0.081464 0.780634 0.462852 -0.133545
C166  C     C_R   0.918543 0.780625 0.537164 -0.133477
C167  C     C_R   0.581455 0.280638 0.462828 -0.133483
C168  C     C_R   0.418535 0.280622 0.537142 -0.133485
C169  C     C_R   0.051633 0.812314 0.466872 -0.143853
C170  C     C_R   0.948372 0.812307 0.533137 -0.143716
C171  C     C_R   0.551626 0.312317 0.466857 -0.143789
C172  C     C_R   0.448366 0.312305 0.533123 -0.143759
C173  C     C_R   0.026938 0.781927 0.486690 0.072543
C174  C     C_R   0.973064 0.781924 0.513313 0.072550
C175  C     C_R   0.526934 0.281928 0.486681 0.072540
C176  C     C_R   0.473061 0.281923 0.513304 0.072547
C177  C     C_R   0.529473 0.217534 0.493325 0.058016
C178  C     C_R   0.470522 0.217530 0.506656 0.057965
C179  C     C_R   0.029476 0.717533 0.493335 0.057834
C180  C     C_R   0.970525 0.717531 0.506666 0.058108
C181  C     C_R   0.000001 0.814089 0.500000 -0.177986
C182  C     C_R   0.499999 0.314089 0.499997 -0.177993
C183  C     C_R   0.499998 0.185522 0.499993 -0.171000
C184  C     C_R   0.999999 0.685522 0.499998 -0.170999
H77   H     H_    0.567444 0.138392 0.504367 0.167110
H78   H     H_    0.432549 0.138384 0.495602 0.167070
H79   H     H_    0.067449 0.638390 0.504387 0.166961
H80   H     H_    0.932554 0.638387 0.495622 0.167201
H81   H     H_    0.100521 0.804741 0.448872 0.159133
H82   H     H_    0.899489 0.804730 0.551147 0.159069
H83   H     H_    0.600509 0.304746 0.448845 0.159042
H84   H     H_    0.399478 0.304725 0.551122 0.159173
H85   H     H_    0.048093 0.860525 0.453475 0.149169
H86   H     H_    0.951914 0.860517 0.546535 0.149122
H87   H     H_    0.548085 0.360528 0.453461 0.149128
H88   H     H_    0.451907 0.360514 0.546523 0.149162
N1    N     N_R   0.868648 0.880386 0.052613 0.145648
O49   O     O_R   0.864301 0.888106 0.989467 -0.353773
O50   O     O_R   0.840925 0.847972 0.053961 -0.325667
N2    N     N_R   0.131292 0.880236 0.947336 0.145781
O51   O     O_R   0.135621 0.887898 0.010473 -0.353563
O52   O     O_R   0.159010 0.847818 0.945980 -0.325509
N3    N     N_R   0.368956 0.379639 0.052951 0.146125
O53   O     O_R   0.364681 0.387122 0.989836 -0.352841
O54   O     O_R   0.341267 0.347188 0.054359 -0.325147
N4    N     N_R   0.631514 0.380782 0.947581 0.145412
O55   O     O_R   0.635896 0.388620 0.010739 -0.354260
O56   O     O_R   0.659256 0.348390 0.946269 -0.325906
N5    N     N_R   0.050302 0.110421 0.411146 0.115624
O57   O     O_R   0.079866 0.130810 0.476394 -0.358745
O58   O     O_R   0.013352 0.134799 0.377828 -0.427164
N6    N     N_R   0.949709 0.110433 0.588850 0.115622
O59   O     O_R   0.920145 0.130828 0.523602 -0.358657
O60   O     O_R   0.986659 0.134809 0.622169 -0.427146
N7    N     N_R   0.550217 0.610494 0.411077 0.115522
O61   O     O_R   0.579771 0.630925 0.476308 -0.358734
O62   O     O_R   0.513254 0.634825 0.377748 -0.427240
N8    N     N_R   0.449645 0.610378 0.588799 0.115693
O63   O     O_R   0.420074 0.630742 0.523539 -0.358688
O64   O     O_R   0.486585 0.634788 0.622109 -0.427104
C185  C     C_2   0.209266 0.945245 0.313971 0.875627
O65   O     O_2   0.183858 0.905747 0.302317 -0.576577
O66   O     O_R   0.223013 0.986933 0.372021 -0.716817
H89   H     H_    0.209270 0.980252 0.399509 0.344480
C186  C     C_2   0.790729 0.944872 0.686229 0.875652
O67   O     O_2   0.816139 0.905330 0.698029 -0.576470
O68   O     O_R   0.776976 0.986396 0.628023 -0.716822
H90   H     H_    0.790714 0.979564 0.600558 0.344540
C187  C     C_2   0.709283 0.444036 0.313365 0.875749
O69   O     O_2   0.683871 0.404392 0.301264 -0.576204
O70   O     O_R   0.723048 0.485207 0.371899 -0.716748
H91   H     H_    0.709318 0.478050 0.399326 0.344659
C188  C     C_2   0.290757 0.446422 0.685494 0.875540
O71   O     O_2   0.316164 0.407077 0.696726 -0.576956
O72   O     O_R   0.277026 0.488601 0.627919 -0.716861
H92   H     H_    0.290781 0.482379 0.600386 0.344331
N9    N     N_R   0.286517 0.072840 0.383566 0.155440
O73   O     O_R   0.270580 0.117136 0.399996 -0.325009
O74   O     O_R   0.318947 0.044326 0.438161 -0.331865
N10   N     N_R   0.713474 0.072506 0.616180 0.155386
O75   O     O_R   0.729403 0.116690 0.599589 -0.324941
O76   O     O_R   0.681044 0.043910 0.561695 -0.331774
N11   N     N_R   0.786537 0.571741 0.384367 0.155386
O77   O     O_R   0.770615 0.615678 0.401302 -0.324930
O78   O     O_R   0.818959 0.542960 0.438628 -0.331491
N12   N     N_R   0.213519 0.573835 0.617208 0.155632
O79   O     O_R   0.229471 0.618456 0.601266 -0.324997
O80   O     O_R   0.181076 0.545587 0.562304 -0.332138
C189  C     C_2   0.292056 0.122322 0.290913 0.846466
O81   O     O_2   0.269969 0.156312 0.238134 -0.539595
O82   O     O_R   0.334627 0.135723 0.339853 -0.755123
H93   H     H_    0.343213 0.173869 0.325153 0.342442
C190  C     C_2   0.707952 0.122321 0.708673 0.846639
O83   O     O_2   0.730064 0.156475 0.761236 -0.539677
O84   O     O_R   0.665365 0.135648 0.659793 -0.755386
H94   H     H_    0.656793 0.173885 0.674352 0.342417
C191  C     C_2   0.792038 0.622313 0.292230 0.846701
O85   O     O_2   0.769909 0.656739 0.239986 -0.539722
O86   O     O_R   0.834633 0.635561 0.341138 -0.755680
H95   H     H_    0.843193 0.673991 0.326873 0.342346
C192  C     C_2   0.207903 0.622279 0.710280 0.846089
O87   O     O_2   0.229912 0.655719 0.763687 -0.539703
O88   O     O_R   0.165383 0.635941 0.661158 -0.754420
H96   H     H_    0.156758 0.673783 0.676263 0.342487
N13   N     N_R   0.206766 0.035457 0.096597 0.146493
O89   O     O_R   0.182998 0.013156 0.029796 -0.307594
O90   O     O_R   0.214514 0.093938 0.104725 -0.304792
N14   N     N_R   0.793238 0.035847 0.903254 0.146472
O91   O     O_R   0.817026 0.013707 0.970135 -0.307734
O92   O     O_R   0.785475 0.094319 0.894905 -0.304896
N15   N     N_R   0.706748 0.536671 0.097013 0.146470
O93   O     O_R   0.682941 0.514863 0.029969 -0.307985
O94   O     O_R   0.714512 0.595138 0.105802 -0.304872
N16   N     N_R   0.293216 0.534246 0.903785 0.146508
O95   O     O_R   0.316933 0.511452 0.970334 -0.307260
O96   O     O_R   0.285505 0.592734 0.896309 -0.304652

loop_
_geom_bond_atom_site_label_1
_geom_bond_atom_site_label_2
_geom_bond_distance
_ccdc_geom_bond_type
Cu5   O29   1.979989 S    
C135  C137  1.385371 A    
C157  C161  1.392329 A    
C81   C85   1.427157 A    
C185  O65   1.223103 D    
C78   C94   1.406825 A    
C13   H5    1.106830 S    
C90   C94   1.410051 A    
H1    C29   1.110115 S    
C140  C144  1.392641 A    
C15   H7    1.106766 S    
H3    C31   1.110064 S    
C174  C180  1.410721 A    
N1    O49   1.301800 A    
H4    C32   1.110046 S    
C143  C147  1.423040 A    
C170  C174  1.419212 A    
C137  C141  1.392637 A    
C158  C162  1.392325 A    
C139  C143  1.392637 A    
C26   C50   1.478019 S    
C10   C186  1.518484 S    
O21   C115  1.299696 A    
O39   Cu11  1.980480 S    
C11   C27   1.564195 S    
C97   C101  1.393459 A    
C100  C104  1.393473 A    
C17   C33   1.590575 S    
C38   C42   1.556343 S    
O48   C128  1.284052 A    
C99   C103  1.393434 A    
O22   C116  1.299700 A    
C88   C100  1.418381 A    
C77   C93   1.406823 A    
C84   C88   1.427194 A    
C160  H80   1.080502 S    
C92   C112  1.417698 A    
O36   Cu12  1.979699 S    
H74   C161  1.082679 S    
C91   C111  1.417719 A    
C140  H68   1.082692 S    
C141  H69   1.076753 S    
O33   C121  1.281561 A    
C143  H71   1.076732 S    
C35   C47   1.479709 S    
C37   H29   1.111573 S    
N4    O55   1.301798 A    
C159  C163  1.392324 A    
O16   Cu4   1.939954 S    
C28   C44   1.563642 S    
Cu7   O31   1.979989 S    
O7    Cu4   1.980387 S    
O13   Cu3   1.939948 S    
C100  H48   1.078643 S    
C72   N8    1.431339 S    
O6    C2    1.297635 A    
C99   H47   1.078666 S    
C165  C169  1.392971 A    
C36   C40   1.560064 S    
O9    C5    1.300796 A    
O20   Cu8   1.979919 S    
C42   N14   1.470031 S    
C148  C150  1.411295 A    
C73   C77   1.410915 A    
C15   H11   1.109617 S    
C190  O83   1.222719 D    
O8    Cu4   1.980409 S    
C59   H35   1.081917 S    
O82   H93   1.013969 S    
C108  C112  1.400802 A    
C19   N11   1.480224 S    
C110  H54   1.080625 S    
C65   H41   1.082744 S    
C128  C154  1.471938 S    
C159  H79   1.080505 S    
O3    Cu2   1.980192 S    
C52   C56   1.205292 T    
C27   C51   1.478018 S    
N2    O51   1.301808 A    
C112  H56   1.080637 S    
C102  C106  1.396936 A    
H58   C133  1.082635 S    
C67   C71   1.403254 A    
C12   C188  1.518504 S    
C191  O85   1.222676 D    
C166  C170  1.392966 A    
C37   H17   1.113882 S    
C18   N10   1.480221 S    
O35   Cu11  1.979697 S    
C192  O88   1.399592 S    
O19   C114  1.294796 A    
C108  N4    1.440818 S    
C187  O69   1.223060 D    
C42   H14   1.115520 S    
C34   C38   1.559984 S    
N6    O59   1.301779 A    
C129  H61   1.080921 S    
O44   C126  1.283219 A    
C132  H64   1.080923 S    
C75   C79   1.410921 A    
O3    C3    1.291194 A    
O34   Cu10  1.979699 S    
C40   H20   1.113781 S    
C12   H24   1.115662 S    
C39   H19   1.113811 S    
C74   C82   1.433626 A    
C148  C154  1.428277 A    
O66   H89   1.013801 S    
C14   C26   1.557585 S    
H76   C163  1.082683 S    
O45   C127  1.284005 A    
C69   N5    1.431315 S    
C189  O82   1.399511 S    
O41   C123  1.283184 A    
N7    O61   1.301779 A    
O33   Cu9   1.979697 S    
N13   O89   1.301181 A    
C11   C187  1.518489 S    
C9    C185  1.518563 S    
O5    C1    1.297613 A    
C179  C184  1.416123 A    
C21   C115  1.433669 S    
C32   C36   1.560597 S    
C171  H87   1.079959 S    
O32   C120  1.296567 A    
C146  C153  1.428313 A    
O88   H96   1.013878 S    
C175  C182  1.418882 A    
C105  N1    1.440813 S    
C66   C70   1.403262 A    
C103  H51   1.082639 S    
C25   C41   1.563744 S    
O5    Cu3   1.980387 S    
C87   C91   1.408745 A    
C40   H32   1.111466 S    
C136  C138  1.385368 A    
C79   C95   1.406843 A    
C14   H6    1.106744 S    
C82   C124  1.473585 S    
H2    C30   1.110045 S    
C171  C175  1.419211 A    
C16   H12   1.109592 S    
C43   H15   1.115539 S    
H59   C136  1.082635 S    
Cu11  Cu12  2.643958 S    
C137  H65   1.082691 S    
C138  C142  1.392637 A    
N10   O76   1.301736 A    
O7    C3    1.297687 A    
C151  C156  1.410496 A    
C9    C29   1.557531 S    
C30   C34   1.560627 S    
C103  C107  1.396922 A    
C144  H72   1.076764 S    
C11   C31   1.557488 S    
C104  C108  1.396944 A    
N14   O91   1.301128 A    
C12   C32   1.557508 S    
C64   C68   1.385842 A    
O20   C114  1.294790 A    
O22   Cu6   1.939222 S    
C29   H25   1.113943 S    
C19   C191  1.533453 S    
C69   C73   1.430854 A    
O15   Cu4   1.939948 S    
C29   C33   1.560704 S    
C71   C75   1.430856 A    
O30   C119  1.296555 A    
O8    C4    1.297582 A    
Cu7   Cu8   2.699189 S    
H75   C164  1.082678 S    
C167  H83   1.082585 S    
N16   O95   1.301107 A    
C2    C94   1.450894 S    
C61   C65   1.385824 A    
C59   C79   1.415611 A    
C142  H70   1.076750 S    
O19   Cu7   1.979942 S    
C63   C67   1.385800 A    
C175  C177  1.410726 A    
C57   C77   1.415601 A    
C176  C182  1.418885 A    
O4    C4    1.291222 A    
O28   Cu7   1.940744 S    
C60   C64   1.387486 A    
C26   C42   1.563663 S    
O34   C121  1.281555 A    
C18   C190  1.533391 S    
C145  C153  1.428302 A    
C178  C183  1.416125 A    
C32   H28   1.113870 S    
O14   C6    1.299862 A    
C150  C155  1.410493 A    
C174  C181  1.418882 A    
C89   C93   1.410030 A    
C10   H22   1.115667 S    
C24   C48   1.205804 T    
Cu11  O47   1.979580 S    
O47   C128  1.283946 A    
O10   C6    1.300788 A    
C192  O87   1.222797 D    
O35   C122  1.281553 A    
C169  C173  1.419209 A    
C87   C99   1.418372 A    
O25   Cu6   1.940747 S    
C16   H8    1.106748 S    
C169  H85   1.079956 S    
N15   O94   1.300305 A    
O43   C125  1.283119 A    
O24   Cu8   1.939222 S    
C25   C49   1.478024 S    
C131  H63   1.080924 S    
C166  H82   1.082586 S    
O17   C113  1.294779 A    
C168  C172  1.392967 A    
C24   C118  1.433663 S    
C66   H42   1.082744 S    
N8    O63   1.301777 A    
O27   C117  1.300908 A    
O44   Cu11  1.978164 S    
C49   C53   1.205298 T    
C172  C176  1.419215 A    
C188  O72   1.397854 S    
C130  C134  1.389994 A    
C51   C55   1.205284 T    
N12   O79   1.302501 A    
C160  C180  1.418844 A    
C39   H31   1.111503 S    
C187  O70   1.397891 S    
O23   C117  1.299707 A    
C20   N12   1.480259 S    
C104  H52   1.082638 S    
H60   C135  1.082634 S    
N11   O77   1.302536 A    
O41   Cu10  1.978164 S    
C186  O68   1.397867 S    
C130  H62   1.080926 S    
C38   H18   1.113783 S    
C75   C83   1.433610 A    
C76   C84   1.433629 A    
N4    O56   1.301571 A    
C74   C78   1.410911 A    
C13   H9    1.109674 S    
O72   H92   1.013735 S    
C64   H40   1.082826 S    
C15   C27   1.557593 S    
O42   Cu9   1.978164 S    
C109  H53   1.080628 S    
O18   C113  1.294803 A    
C67   H43   1.082744 S    
C71   N7    1.431269 S    
C68   H44   1.082744 S    
O37   C123  1.286437 A    
C157  H77   1.080502 S    
C13   C25   1.557717 S    
O68   H90   1.013735 S    
C37   C41   1.556334 S    
C11   H23   1.115689 S    
N5    O58   1.299067 A    
C127  C153  1.471932 S    
C40   C44   1.556327 S    
C72   C76   1.430851 A    
C185  O66   1.397953 S    
O25   C115  1.300919 A    
C70   N6    1.431301 S    
C168  H84   1.082584 S    
C23   C117  1.433668 S    
C164  C166  1.387884 A    
C177  C183  1.416128 A    
N1    O50   1.301571 A    
C173  C179  1.410725 A    
C34   C46   1.479705 S    
C5    C53   1.433509 S    
C165  H81   1.082584 S    
Cu5   Cu6   2.699189 S    
C129  C149  1.419357 A    
O1    C1    1.291219 A    
C63   H39   1.082824 S    
C38   H30   1.111475 S    
C85   C97   1.418377 A    
C61   H37   1.082827 S    
C172  H88   1.079955 S    
C50   C54   1.205287 T    
O46   C127  1.283989 A    
C13   C17   1.585212 S    
C15   C19   1.585206 S    
C141  C145  1.423018 A    
C33   C45   1.479720 S    
C23   C47   1.205820 T    
C133  C139  1.385354 A    
C131  C135  1.389985 A    
N3    O53   1.301804 A    
C134  C140  1.385377 A    
C152  C156  1.410494 A    
C106  N2    1.440827 S    
N6    O60   1.299061 A    
C161  C167  1.387889 A    
C138  H66   1.082693 S    
C60   C80   1.415594 A    
C8    C56   1.433511 S    
C57   H33   1.081921 S    
C9    H21   1.115757 S    
C31   H27   1.113896 S    
C101  H49   1.082638 S    
O26   Cu5   1.940744 S    
C10   C30   1.557478 S    
C86   C90   1.408729 A    
C113  C155  1.450698 S    
C12   C28   1.564245 S    
C105  C109  1.400808 A    
O42   C124  1.283170 A    
C119  C183  1.457801 S    
C189  O81   1.222892 D    
O31   C120  1.296546 A    
C120  C184  1.457801 S    
C85   C89   1.408725 A    
Cu9   O45   1.979580 S    
C88   C92   1.408717 A    
C43   N15   1.470036 S    
O40   C126  1.286430 A    
C90   C110  1.417717 A    
O4    Cu2   1.980172 S    
O86   H95   1.013864 S    
N7    O62   1.299052 A    
C121  C181  1.461116 S    
N2    O52   1.301566 A    
H57   C134  1.082633 S    
C83   C87   1.427087 A    
C180  C184  1.416130 A    
O39   C125  1.286460 A    
O38   C124  1.286447 A    
C145  C151  1.411300 A    
C41   H13   1.115618 S    
C146  C152  1.411303 A    
C147  C149  1.411309 A    
C3    C95   1.450963 S    
O17   Cu5   1.979942 S    
C33   C37   1.560099 S    
C1    C93   1.450886 S    
C176  C178  1.410721 A    
C58   C78   1.415610 A    
O2    Cu1   1.980172 S    
C35   C39   1.559996 S    
C6    C54   1.433505 S    
O10   Cu1   1.939952 S    
C101  C105  1.396938 A    
O13   C5    1.299854 A    
O38   Cu10  1.980479 S    
C160  C164  1.392327 A    
O21   Cu5   1.939225 S    
C20   C36   1.590350 S    
C190  O84   1.399490 S    
O43   Cu12  1.978164 S    
N9    O73   1.302634 A    
C22   C46   1.205814 T    
C36   C48   1.479697 S    
O29   C119  1.296558 A    
C122  C182  1.461116 S    
C147  C154  1.428349 A    
C89   C109  1.417702 A    
O40   Cu12  1.980479 S    
C58   H34   1.081919 S    
O15   C7    1.299873 A    
O70   H91   1.013749 S    
C92   C96   1.409991 A    
O36   C122  1.281564 A    
O84   H94   1.013861 S    
C86   C98   1.418379 A    
C91   C95   1.410108 A    
C191  O86   1.399449 S    
H73   C162  1.082681 S    
N14   O92   1.300284 A    
C170  H86   1.079958 S    
N11   O78   1.301734 A    
C60   H36   1.081926 S    
C102  H50   1.082643 S    
C129  C133  1.389973 A    
C111  H55   1.080608 S    
C65   C69   1.403266 A    
C158  C178  1.418845 A    
C173  C181  1.418886 A    
O16   C8    1.299838 A    
N15   O93   1.301148 A    
C83   C125  1.473526 S    
N16   O96   1.300264 A    
Cu6   O30   1.980011 S    
C98   H46   1.078656 S    
O11   C7    1.300772 A    
C82   C86   1.427148 A    
O12   C8    1.300817 A    
C17   N9    1.480279 S    
C7    C55   1.433501 S    
O1    Cu1   1.980192 S    
O9    Cu1   1.939952 S    
C76   C80   1.410910 A    
C44   N16   1.470057 S    
N13   O90   1.300346 A    
C17   C189  1.533433 S    
C31   C35   1.560665 S    
C14   H10   1.109595 S    
C149  C155  1.410486 A    
C80   C96   1.406806 A    
C18   C34   1.590486 S    
C16   C20   1.585213 S    
C107  N3    1.440810 S    
C131  C151  1.419350 A    
C22   C116  1.433665 S    
C132  C152  1.419353 A    
O11   Cu2   1.939952 S    
C167  C171  1.392966 A    
Cu8   O32   1.980011 S    
Cu10  O46   1.979577 S    
C84   C126  1.473636 S    
C70   C74   1.430854 A    
C81   C123  1.473597 S    
O26   C116  1.300916 A    
O6    Cu3   1.980409 S    
C144  C148  1.423006 A    
C159  C179  1.418846 A    
C97   H45   1.078654 S    
C162  C168  1.387890 A    
C163  C165  1.387890 A    
C62   C66   1.385823 A    
O37   Cu9   1.980480 S    
C44   H16   1.115523 S    
C158  H78   1.080505 S    
O18   Cu6   1.979919 S    
N3    O54   1.301571 A    
N8    O64   1.299074 A    
O28   C118  1.300933 A    
C21   C45   1.205821 T    
C107  C111  1.400820 A    
C130  C150  1.419346 A    
O2    C2    1.291205 A    
C27   C43   1.563689 S    
O27   Cu8   1.940747 S    
N10   O75   1.302502 A    
C188  O71   1.223049 D    
C73   C81   1.433616 A    
C62   H38   1.082824 S    
C58   C62   1.387468 A    
N12   O80   1.301741 A    
C14   C18   1.585227 S    
C19   C35   1.590534 S    
O14   Cu3   1.939954 S    
C9    C25   1.564329 S    
C16   C28   1.557660 S    
O12   Cu2   1.939952 S    
C142  C146  1.423023 A    
C57   C61   1.387474 A    
Cu1   Cu3   2.698731 S    
C186  O67   1.223049 D    
Cu12  O48   1.979577 S    
Cu2   Cu4   2.698731 S    
C132  C136  1.389983 A    
C4    C96   1.450838 S    
C139  H67   1.082694 S    
C20   C192  1.533252 S    
C39   C43   1.556343 S    
C28   C52   1.478017 S    
C10   C26   1.564181 S    
N9    O74   1.301730 A    
C157  C177  1.418842 A    
O23   Cu7   1.939225 S    
Cu9   Cu10  2.643958 S    
C106  C110  1.400815 A    
C98   C102  1.393464 A    
O24   C118  1.299679 A    
C59   C63   1.387456 A    
C30   H26   1.113875 S    
N5    O57   1.301777 A    
C68   C72   1.403273 A    
C41   N13   1.470149 S    
C114  C156  1.450702 S    
