data_str_m1_o22_o22_f0_pcu.sym.39
_audit_creation_date              2012-12-10T18:25:33-0500
_audit_creation_method            fapswitch 2.2
_symmetry_space_group_name_H-M    P1
_symmetry_Int_Tables_number       1
_space_group_crystal_system       triclinic
_cell_length_a                    25.884277
_cell_length_b                    26.062561
_cell_length_c                    18.304807
_cell_angle_alpha                 90.058068
_cell_angle_beta                  134.955149
_cell_angle_gamma                 89.918837
_cell_volume                      8738.61381065

loop_
_atom_site_label
_atom_site_type_symbol
_atom_type_description
_atom_site_fract_x
_atom_site_fract_y
_atom_site_fract_z
_atom_type_partial_charge
C1    C     C_R   0.107330 0.248145 0.496622 0.840514
C2    C     C_R   0.108522 0.750766 0.499325 0.855358
C3    C     C_R   0.607388 0.748114 0.496744 0.843769
C4    C     C_R   0.608877 0.250428 0.500097 0.851104
C5    C     C_3   0.524638 0.226234 0.940064 0.226938
C6    C     C_3   0.529201 0.765563 0.939995 0.235247
C7    C     C_3   0.029382 0.732860 0.940193 0.229829
C8    C     C_3   0.033354 0.253015 0.939772 0.244723
C9    C     C_3   0.448539 0.248261 0.897998 -0.036170
C10   C     C_3   0.450208 0.752227 0.897835 -0.055143
C11   C     C_3   0.950403 0.746629 0.897738 -0.035258
C12   C     C_3   0.952703 0.253191 0.897929 -0.052114
C13   C     C_3   0.548213 0.251376 0.102409 -0.036879
C14   C     C_3   0.549264 0.750122 0.102301 -0.046609
C15   C     C_3   0.049260 0.749591 0.102130 -0.038348
C16   C     C_3   0.051549 0.252114 0.102469 -0.049924
C17   C     C_3   0.516154 0.309679 0.060252 0.317956
C18   C     C_3   0.508361 0.694370 0.060524 0.344708
C19   C     C_3   0.008665 0.805538 0.059270 0.312851
C20   C     C_3   0.998195 0.202490 0.060687 0.345825
C21   C     C_3   0.586321 0.230738 0.064865 0.156674
C22   C     C_3   0.590128 0.761019 0.064867 0.165329
C23   C     C_3   0.090196 0.737555 0.065064 0.158042
C24   C     C_3   0.093283 0.248699 0.064672 0.162103
C25   C     C_3   0.502749 0.295293 0.568848 -0.126150
C26   C     C_3   0.486871 0.695237 0.536809 -0.139598
C27   C     C_3   0.997597 0.798337 0.558465 -0.134020
C28   C     C_3   0.984253 0.194434 0.531539 -0.145495
C29   C     C_3   0.570948 0.293407 0.583819 0.233756
C30   C     C_3   0.554125 0.694826 0.549652 0.263788
C31   C     C_3   0.066045 0.797256 0.574084 0.228218
C32   C     C_3   0.051449 0.193779 0.544170 0.255649
C33   C     C_3   0.410471 0.257105 0.382339 0.306297
C34   C     C_3   0.408856 0.757021 0.377919 0.329737
C35   C     C_3   0.909397 0.751568 0.379777 0.312487
C36   C     C_3   0.909339 0.260015 0.378963 0.327957
C37   C     C_3   0.493237 0.195793 0.549917 0.337212
C38   C     C_3   0.504927 0.793775 0.571898 0.351863
C39   C     C_3   0.997214 0.698317 0.557641 0.338069
C40   C     C_3   0.007133 0.292015 0.576395 0.354096
C41   C     C_3   0.447681 0.249171 0.498780 -0.018701
C42   C     C_3   0.445897 0.749264 0.494591 -0.021533
C43   C     C_3   0.947012 0.749211 0.497286 -0.018215
C44   C     C_3   0.945982 0.249406 0.494771 -0.019589
C45   C     C_R   0.390686 0.249845 0.499770 0.840544
C46   C     C_R   0.389606 0.749174 0.497469 0.811213
C47   C     C_R   0.890319 0.750089 0.498986 0.847338
C48   C     C_R   0.889668 0.249241 0.497585 0.813605
C49   C     C_3   0.552079 0.250395 0.502661 -0.016781
C50   C     C_3   0.549709 0.747424 0.497240 -0.017144
C51   C     C_3   0.051540 0.750836 0.501419 -0.014618
C52   C     C_3   0.049592 0.247640 0.496977 -0.016897
C53   C     C_3   0.475129 0.267679 0.392287 -0.056740
C54   C     C_3   0.470164 0.745955 0.381139 -0.054961
C55   C     C_3   0.973036 0.763020 0.387942 -0.059935
C56   C     C_3   0.970009 0.249293 0.380755 -0.054989
C57   C     C_3   0.546490 0.192953 0.532848 0.393097
C58   C     C_3   0.559944 0.798082 0.558369 0.368518
C59   C     C_3   0.051467 0.695085 0.542301 0.385715
C60   C     C_3   0.062250 0.296743 0.562980 0.367723
C61   C     C_3   0.253371 0.031640 0.590294 0.290361
C62   C     C_3   0.263755 0.970088 0.600937 0.278670
C63   C     C_3   0.707463 0.530945 0.536642 0.274009
C64   C     C_3   0.718965 0.469490 0.552255 0.277770
C65   C     C_3   0.322710 0.031656 0.527627 0.278805
C66   C     C_3   0.319504 0.969831 0.518443 0.257351
C67   C     C_3   0.827965 0.531786 0.568005 0.273964
C68   C     C_3   0.828914 0.470009 0.562496 0.242386
C69   C     C_3   0.176741 0.030221 0.390030 0.114653
C70   C     C_3   0.174883 0.968793 0.397801 0.153242
C71   C     C_3   0.692730 0.530140 0.376946 0.124483
C72   C     C_3   0.689155 0.468560 0.380028 0.164072
C73   C     C_3   0.251960 0.051259 0.503382 -0.038930
C74   C     C_3   0.253458 0.949295 0.505840 -0.030867
C75   C     C_3   0.744064 0.551199 0.495659 -0.038953
C76   C     C_3   0.747368 0.449219 0.499904 -0.033070
C77   C     C_3   0.248675 0.448700 0.498990 -0.100707
C78   C     C_3   0.249170 0.550899 0.498172 -0.097437
C79   C     C_3   0.752006 0.948892 0.501695 -0.101526
C80   C     C_3   0.751531 0.051091 0.501337 -0.097743
C81   C     C_3   0.291400 0.468940 0.467298 0.269130
C82   C     C_3   0.283426 0.530909 0.454454 0.271001
C83   C     C_3   0.711329 0.968919 0.386339 0.242601
C84   C     C_3   0.701904 0.030669 0.381799 0.284104
C85   C     C_3   0.162394 0.469143 0.412571 0.373465
C86   C     C_3   0.163239 0.530890 0.422687 0.367816
C87   C     C_3   0.708948 0.969578 0.532962 0.371578
C88   C     C_3   0.717306 0.031383 0.545228 0.348419
C89   C     C_R   0.249668 0.391031 0.500122 0.856716
C90   C     C_R   0.249827 0.608847 0.499262 0.850337
C91   C     C_R   0.750401 0.891093 0.500104 0.853384
C92   C     C_R   0.750367 0.108914 0.500382 0.850281
C93   C     C_3   0.293409 0.468560 0.617046 0.346913
C94   C     C_3   0.302805 0.530184 0.619136 0.358712
C95   C     C_3   0.838943 0.968965 0.587499 0.369941
C96   C     C_3   0.837591 0.030673 0.575742 0.354923
C97   C     C_R   0.250844 0.108965 0.501099 0.849055
C98   C     C_R   0.251823 0.891191 0.502347 0.837725
C99   C     C_R   0.745976 0.609012 0.496279 0.863850
C100  C     C_R   0.748842 0.391177 0.499387 0.818732
C101  C     C_R   0.109102 0.250599 0.218005 0.866123
C102  C     C_R   0.107687 0.750750 0.217962 0.867410
C103  C     C_R   0.607752 0.749277 0.217994 0.862565
C104  C     C_R   0.607079 0.251610 0.218146 0.865329
C105  C     C_R   0.391605 0.248918 0.782072 0.856398
C106  C     C_R   0.392360 0.751521 0.782025 0.847644
C107  C     C_R   0.892733 0.747807 0.781850 0.857193
C108  C     C_R   0.893480 0.252339 0.781882 0.836419
C109  C     C_3   0.419057 0.213333 0.937650 0.277241
C110  C     C_3   0.427036 0.794878 0.937353 0.288517
C111  C     C_3   0.926813 0.704673 0.937281 0.277589
C112  C     C_3   0.941348 0.304681 0.937638 0.288503
C113  C     C_3   0.483326 0.210614 0.061767 0.277331
C114  C     C_3   0.491406 0.797515 0.061512 0.272420
C115  C     C_3   0.990953 0.702557 0.061627 0.273254
C116  C     C_3   0.006060 0.307044 0.061948 0.262672
C117  C     C_3   0.459991 0.307933 0.935982 0.151778
C118  C     C_3   0.452145 0.694579 0.936733 0.153648
C119  C     C_3   0.952718 0.804498 0.935130 0.151823
C120  C     C_3   0.941791 0.201340 0.936939 0.147019
H1    H     H_    0.523753 0.290345 0.646283 0.178668
H2    H     H_    0.507458 0.689070 0.613689 0.176224
H3    H     H_    0.018822 0.796866 0.636433 0.181177
H4    H     H_    0.004575 0.186472 0.607790 0.174481
H5    H     H_    0.478279 0.309611 0.390786 0.171239
H6    H     H_    0.462282 0.705914 0.356435 0.188042
H7    H     H_    0.971834 0.804764 0.379096 0.170206
H8    H     H_    0.960474 0.210011 0.351794 0.184297
O1    O     O_3   0.249990 0.249990 0.500000 -0.479746
O2    O     O_3   0.249990 0.750010 0.500000 -0.471534
O3    O     O_3   0.749990 0.749990 0.500000 -0.478086
O4    O     O_3   0.749990 0.250010 0.500000 -0.472047
O5    O     O_R   0.311270 0.366840 0.561280 -0.659274
O6    O     O_R   0.311270 0.633160 0.561280 -0.669526
O7    O     O_R   0.811270 0.866840 0.561280 -0.651464
O8    O     O_R   0.811270 0.133160 0.561280 -0.657302
O9    O     O_R   0.249990 0.133140 0.561260 -0.643195
O10   O     O_R   0.249990 0.866860 0.561260 -0.671334
O11   O     O_R   0.749990 0.633140 0.561260 -0.657520
O12   O     O_R   0.749990 0.366860 0.561260 -0.672916
O13   O     O_R   0.102520 0.280640 0.438750 -0.651579
O14   O     O_R   0.102520 0.719360 0.438750 -0.654041
O15   O     O_R   0.602520 0.780640 0.438750 -0.651957
O16   O     O_R   0.602520 0.219360 0.438750 -0.655336
O17   O     O_R   0.336190 0.219350 0.438710 -0.660008
O18   O     O_R   0.336190 0.780650 0.438710 -0.658315
O19   O     O_R   0.836190 0.719350 0.438710 -0.659742
O20   O     O_R   0.836190 0.280650 0.438710 -0.654116
O21   O     O_R   0.163790 0.219360 0.561280 -0.660284
O22   O     O_R   0.163790 0.780640 0.561280 -0.663092
O23   O     O_R   0.663790 0.719360 0.561280 -0.663746
O24   O     O_R   0.663790 0.280640 0.561280 -0.661178
O25   O     O_R   0.397470 0.280620 0.561260 -0.643693
O26   O     O_R   0.397470 0.719380 0.561260 -0.670737
O27   O     O_R   0.897470 0.780620 0.561260 -0.649763
O28   O     O_R   0.897470 0.219380 0.561260 -0.673496
O29   O     O_R   0.188730 0.366850 0.438750 -0.653997
O30   O     O_R   0.188730 0.633150 0.438750 -0.649147
O31   O     O_R   0.688730 0.866850 0.438750 -0.656674
O32   O     O_R   0.688730 0.133150 0.438750 -0.659499
O33   O     O_R   0.249980 0.133140 0.438710 -0.646807
O34   O     O_R   0.249980 0.866860 0.438710 -0.643762
O35   O     O_R   0.749980 0.633140 0.438710 -0.657874
O36   O     O_R   0.749980 0.366860 0.438710 -0.635388
O37   O     O_R   0.102500 0.280640 0.266310 -0.649157
O38   O     O_R   0.102500 0.719360 0.266310 -0.644075
O39   O     O_R   0.602500 0.780640 0.266310 -0.645541
O40   O     O_R   0.602500 0.219360 0.266310 -0.644526
O41   O     O_R   0.336220 0.219350 0.733700 -0.638955
O42   O     O_R   0.336220 0.780650 0.733700 -0.633052
O43   O     O_R   0.836220 0.719350 0.733700 -0.636293
O44   O     O_R   0.836220 0.280650 0.733700 -0.631159
O45   O     O_R   0.163750 0.219360 0.266290 -0.638766
O46   O     O_R   0.163750 0.780640 0.266290 -0.632589
O47   O     O_R   0.663750 0.719360 0.266290 -0.641995
O48   O     O_R   0.663750 0.280640 0.266290 -0.633292
O49   O     O_R   0.397490 0.280620 0.733700 -0.643063
O50   O     O_R   0.397490 0.719380 0.733700 -0.675007
O51   O     O_R   0.897490 0.780620 0.733700 -0.642669
O52   O     O_R   0.897490 0.219380 0.733700 -0.672702
Zn1   Zn    Zn3+2 0.337540 0.293760 0.587540 0.924705
Zn2   Zn    Zn3+2 0.337540 0.706240 0.587540 0.897790
Zn3   Zn    Zn3+2 0.837540 0.793760 0.587540 0.925685
Zn4   Zn    Zn3+2 0.837540 0.206240 0.587540 0.894913
Zn5   Zn    Zn3+2 0.162450 0.293770 0.412470 0.903794
Zn6   Zn    Zn3+2 0.162450 0.706230 0.412470 0.908476
Zn7   Zn    Zn3+2 0.662450 0.793770 0.412470 0.905037
Zn8   Zn    Zn3+2 0.662450 0.206230 0.412470 0.905251
Zn9   Zn    Zn3+2 0.249980 0.206220 0.412450 0.921330
Zn10  Zn    Zn3+2 0.249980 0.793780 0.412450 0.922305
Zn11  Zn    Zn3+2 0.749980 0.706220 0.412450 0.917848
Zn12  Zn    Zn3+2 0.749980 0.293780 0.412450 0.924203
Zn13  Zn    Zn3+2 0.250000 0.206220 0.587540 0.911947
Zn14  Zn    Zn3+2 0.250000 0.793780 0.587540 0.906654
Zn15  Zn    Zn3+2 0.750000 0.706220 0.587540 0.910522
Zn16  Zn    Zn3+2 0.750000 0.293780 0.587540 0.906095
N1    N     N_3   0.351254 0.237868 0.898647 -0.425839
H9    H     H_    0.359457 0.267708 0.942444 0.199438
H10   H     H_    0.318501 0.212673 0.896097 0.180894
N2    N     N_3   0.356006 0.778286 0.898600 -0.422388
H11   H     H_    0.359830 0.752134 0.944239 0.197606
H12   H     H_    0.325665 0.808434 0.890990 0.177463
N3    N     N_3   0.855650 0.721650 0.897750 -0.414352
H13   H     H_    0.859220 0.748390 0.942430 0.197267
H14   H     H_    0.825409 0.691751 0.890827 0.181666
N4    N     N_3   0.867918 0.300956 0.899294 -0.409120
H15   H     H_    0.866168 0.281218 0.946172 0.194026
H16   H     H_    0.843626 0.336442 0.886513 0.183935
N5    N     N_3   0.647888 0.264840 0.105332 -0.443619
H17   H     H_    0.689371 0.244220 0.120949 0.169301
H18   H     H_    0.635862 0.292953 0.055396 0.170643
N6    N     N_3   0.645194 0.720050 0.105608 -0.440412
H19   H     H_    0.694904 0.734473 0.136193 0.170180
H20   H     H_    0.631285 0.691847 0.054343 0.169822
N7    N     N_3   0.145907 0.777767 0.105547 -0.439658
H21   H     H_    0.193336 0.762661 0.129646 0.172310
H22   H     H_    0.130983 0.806621 0.054838 0.168946
N8    N     N_3   0.137368 0.200623 0.104487 -0.430899
H23   H     H_    0.188629 0.206339 0.131894 0.167862
H24   H     H_    0.115448 0.170234 0.053543 0.168895
N9    N     N_3   0.485688 0.339750 0.899436 -0.421063
H25   H     H_    0.474494 0.378598 0.896996 0.165215
H26   H     H_    0.541285 0.338144 0.945625 0.201048
N10   N     N_3   0.472500 0.653538 0.904579 -0.478584
H27   H     H_    0.432664 0.644644 0.826154 0.219923
H28   H     H_    0.524354 0.654289 0.934067 0.210855
N11   N     N_3   0.972819 0.842362 0.898006 -0.425166
H29   H     H_    0.955793 0.879352 0.895273 0.166126
H30   H     H_    0.028250 0.845384 0.943642 0.202084
N12   N     N_3   0.951176 0.153217 0.904052 -0.480777
H31   H     H_    0.911844 0.148047 0.824260 0.209876
H32   H     H_    0.002801 0.145758 0.935451 0.210127
C121  C     C_3   0.576071 0.353154 0.110819 -0.845601
H33   H     H_    0.605503 0.360793 0.192180 0.266730
H34   H     H_    0.619187 0.349005 0.113584 0.231985
H35   H     H_    0.549572 0.390314 0.070705 0.197069
C122  C     C_3   0.561453 0.646342 0.109837 -0.821794
H36   H     H_    0.529094 0.610267 0.074721 0.216357
H37   H     H_    0.598712 0.642058 0.101282 0.224846
H38   H     H_    0.595187 0.642894 0.193357 0.239152
C123  C     C_3   0.062146 0.853278 0.109960 -0.846722
H39   H     H_    0.092558 0.857652 0.192409 0.269388
H40   H     H_    0.103637 0.856043 0.109225 0.230045
H41   H     H_    0.030404 0.889401 0.072040 0.201867
C124  C     C_3   0.040091 0.149592 0.111911 -0.830448
H42   H     H_    0.000320 0.117643 0.078465 0.221114
H43   H     H_    0.074828 0.135281 0.103072 0.225532
H44   H     H_    0.074042 0.149259 0.196120 0.227730
N13   N     N_3   0.463981 0.345049 0.533347 -0.440430
H45   H     H_    0.463886 0.364705 0.483930 0.197049
H46   H     H_    0.489123 0.368967 0.596911 0.177492
N14   N     N_3   0.437388 0.651524 0.474854 -0.471580
H47   H     H_    0.389368 0.655224 0.456901 0.193482
H48   H     H_    0.462325 0.618124 0.519387 0.185698
N15   N     N_3   0.954529 0.846282 0.514305 -0.445536
H49   H     H_    0.952538 0.863304 0.461095 0.199232
H50   H     H_    0.978804 0.873097 0.573464 0.177595
N16   N     N_3   0.932628 0.152241 0.465661 -0.468852
H51   H     H_    0.886006 0.155650 0.451398 0.194345
H52   H     H_    0.956750 0.117691 0.506069 0.190805
N17   N     N_3   0.635009 0.277849 0.691179 -0.495272
H53   H     H_    0.682577 0.276613 0.707354 0.230524
H54   H     H_    0.644742 0.304559 0.742565 0.173783
N18   N     N_3   0.621524 0.692461 0.661337 -0.484629
H55   H     H_    0.617364 0.663298 0.696238 0.154683
H56   H     H_    0.667024 0.681654 0.676210 0.237423
N19   N     N_3   0.131014 0.786956 0.684282 -0.494673
H57   H     H_    0.179262 0.787039 0.702244 0.230862
H58   H     H_    0.137231 0.815836 0.729833 0.168639
N20   N     N_3   0.118684 0.188685 0.655516 -0.483981
H59   H     H_    0.112939 0.158852 0.687585 0.151812
H60   H     H_    0.163562 0.177184 0.669355 0.236814
C125  C     C_3   0.591036 0.348773 0.574648 -0.919385
H61   H     H_    0.558640 0.362395 0.495288 0.208757
H62   H     H_    0.586877 0.377666 0.614836 0.216816
H63   H     H_    0.649234 0.352389 0.617242 0.270492
C126  C     C_3   0.554263 0.644361 0.501694 -0.930575
H64   H     H_    0.500944 0.633845 0.424270 0.238569
H65   H     H_    0.593216 0.645526 0.494693 0.254267
H66   H     H_    0.570419 0.611014 0.552018 0.226813
C127  C     C_3   0.081050 0.851689 0.554032 -0.907780
H67   H     H_    0.047223 0.861903 0.472491 0.212039
H68   H     H_    0.075348 0.882473 0.589846 0.219337
H69   H     H_    0.138341 0.856302 0.593932 0.264800
C128  C     C_3   0.049471 0.144639 0.491467 -0.909052
H70   H     H_    0.995978 0.136462 0.412466 0.234524
H71   H     H_    0.089909 0.145740 0.487107 0.256205
H72   H     H_    0.062916 0.109961 0.537536 0.229874
C129  C     C_3   0.353674 0.302447 0.322032 -0.935240
H73   H     H_    0.321304 0.306185 0.340528 0.234334
H74   H     H_    0.376823 0.340328 0.331819 0.226821
H75   H     H_    0.313853 0.295782 0.237480 0.221180
C130  C     C_3   0.342731 0.720328 0.296831 -0.972296
H76   H     H_    0.358418 0.680185 0.300733 0.251272
H77   H     H_    0.303030 0.720306 0.302786 0.240601
H78   H     H_    0.312811 0.733091 0.217451 0.225293
C131  C     C_3   0.847853 0.793423 0.310553 -0.942960
H79   H     H_    0.813288 0.796369 0.325487 0.236807
H80   H     H_    0.867023 0.832157 0.315282 0.225539
H81   H     H_    0.810596 0.783452 0.227603 0.218854
C132  C     C_3   0.841966 0.224982 0.294592 -0.963812
H82   H     H_    0.856187 0.184906 0.294882 0.249436
H83   H     H_    0.802061 0.224328 0.300159 0.246714
H84   H     H_    0.812981 0.239680 0.216706 0.225565
C133  C     C_3   0.443711 0.146584 0.507675 -0.820488
H85   H     H_    0.404053 0.140109 0.423927 0.248144
H86   H     H_    0.478095 0.111482 0.544498 0.210429
H87   H     H_    0.412827 0.146103 0.528981 0.256583
C134  C     C_3   0.468383 0.846701 0.555187 -0.857951
H88   H     H_    0.435520 0.864846 0.479264 0.244547
H89   H     H_    0.432857 0.843245 0.568336 0.235065
H90   H     H_    0.510640 0.875410 0.612439 0.224080
C135  C     C_3   0.951888 0.647451 0.523247 -0.825551
H91   H     H_    0.915246 0.636407 0.441776 0.247181
H92   H     H_    0.989199 0.614241 0.568219 0.213151
H93   H     H_    0.918577 0.648597 0.540554 0.254596
C136  C     C_3   0.973073 0.345233 0.565157 -0.859298
H94   H     H_    0.940636 0.364998 0.490811 0.246096
H95   H     H_    0.937845 0.341665 0.579052 0.227818
H96   H     H_    0.016792 0.372663 0.624506 0.223976
C137  C     C_3   0.390413 0.157223 0.890994 -0.885076
H97   H     H_    0.388750 0.133356 0.939435 0.201082
H98   H     H_    0.332162 0.156899 0.816667 0.262898
H99   H     H_    0.418072 0.135149 0.876521 0.234815
C138  C     C_3   0.407480 0.851041 0.890137 -0.905463
H100  H     H_    0.405218 0.877718 0.935116 0.204367
H101  H     H_    0.442117 0.869310 0.884287 0.231147
H102  H     H_    0.351440 0.854468 0.812060 0.271847
C139  C     C_3   0.907235 0.648360 0.890383 -0.903421
H103  H     H_    0.903864 0.622167 0.934667 0.205232
H104  H     H_    0.851736 0.645084 0.811516 0.272766
H105  H     H_    0.942416 0.629393 0.886092 0.228720
C140  C     C_3   0.935350 0.357310 0.888549 -0.931660
H106  H     H_    0.926190 0.389032 0.918975 0.215533
H107  H     H_    0.980715 0.370857 0.900891 0.226050
H108  H     H_    0.888157 0.358809 0.804281 0.268220
C141  C     C_3   0.535654 0.192880 0.667283 -0.955900
H109  H     H_    0.560210 0.154330 0.700527 0.251079
H110  H     H_    0.581105 0.219741 0.719619 0.244659
H111  H     H_    0.498163 0.199572 0.676593 0.221754
C142  C     C_3   0.546110 0.781496 0.686665 -0.943535
H112  H     H_    0.581606 0.813862 0.739398 0.244639
H113  H     H_    0.507194 0.775788 0.693383 0.239131
H114  H     H_    0.582036 0.747730 0.721124 0.238929
C143  C     C_3   0.039133 0.700361 0.674843 -0.953972
H115  H     H_    0.067559 0.663570 0.714967 0.249559
H116  H     H_    0.081593 0.729770 0.722229 0.243181
H117  H     H_    0.000732 0.706700 0.682571 0.227239
C144  C     C_3   0.047990 0.276901 0.689972 -0.945684
H118  H     H_    0.084977 0.308013 0.745659 0.244914
H119  H     H_    0.009196 0.270813 0.696841 0.245091
H120  H     H_    0.082415 0.242450 0.720958 0.238249
C145  C     C_3   0.623574 0.170108 0.629453 -0.902723
H121  H     H_    0.618219 0.129895 0.643584 0.234562
H122  H     H_    0.659978 0.168954 0.617374 0.218805
H123  H     H_    0.654008 0.189717 0.703349 0.247774
C146  C     C_3   0.641556 0.805940 0.664587 -0.859422
H124  H     H_    0.678768 0.810144 0.654226 0.223393
H125  H     H_    0.647046 0.841916 0.702275 0.227364
H126  H     H_    0.664850 0.775541 0.722288 0.252181
C147  C     C_3   0.130445 0.676998 0.643324 -0.887461
H127  H     H_    0.128737 0.637579 0.664727 0.232709
H128  H     H_    0.167369 0.675288 0.632131 0.219202
H129  H     H_    0.158493 0.699931 0.713114 0.249102
C148  C     C_3   0.144226 0.302137 0.669666 -0.853977
H130  H     H_    0.181443 0.307015 0.659442 0.226150
H131  H     H_    0.151354 0.336978 0.711118 0.226736
H132  H     H_    0.166302 0.270227 0.724125 0.251244
C149  C     C_3   0.517922 0.151919 0.447555 -0.865592
H133  H     H_    0.461963 0.157316 0.372936 0.245317
H134  H     H_    0.551565 0.148126 0.431966 0.263048
H135  H     H_    0.519514 0.112543 0.472059 0.218900
C150  C     C_3   0.546329 0.848576 0.499856 -0.876359
H136  H     H_    0.490909 0.852782 0.423048 0.248975
H137  H     H_    0.556742 0.883362 0.543709 0.224469
H138  H     H_    0.584663 0.852789 0.492155 0.255694
C151  C     C_3   0.028310 0.650564 0.465654 -0.872272
H139  H     H_    0.973003 0.653247 0.388653 0.247312
H140  H     H_    0.065175 0.646156 0.455568 0.260167
H141  H     H_    0.031673 0.612448 0.495764 0.222834
C152  C     C_3   0.050906 0.348513 0.509129 -0.883715
H142  H     H_    0.995307 0.354887 0.433767 0.250510
H143  H     H_    0.064015 0.382208 0.556983 0.226748
H144  H     H_    0.088341 0.352413 0.499583 0.253470
N21   N     N_3   0.369300 0.210881 0.319332 -0.471405
H145  H     H_    0.320857 0.207634 0.300434 0.222017
H146  H     H_    0.350964 0.213171 0.247148 0.180058
N22   N     N_3   0.380401 0.809809 0.340731 -0.468266
H147  H     H_    0.363419 0.817106 0.270428 0.181267
H148  H     H_    0.332328 0.815401 0.322039 0.229898
N23   N     N_3   0.873601 0.702387 0.326065 -0.469929
H149  H     H_    0.825373 0.697654 0.307341 0.227157
H150  H     H_    0.855644 0.701299 0.254058 0.180725
N24   N     N_3   0.882918 0.313583 0.346802 -0.466404
H151  H     H_    0.866557 0.322911 0.277601 0.181056
H152  H     H_    0.834761 0.319309 0.327794 0.234365
C153  C     C_3   0.458571 0.255216 0.294728 -0.927451
H153  H     H_    0.404418 0.270927 0.224903 0.235508
H154  H     H_    0.498392 0.274576 0.298026 0.241314
H155  H     H_    0.459116 0.213718 0.283533 0.268957
C154  C     C_3   0.457193 0.770293 0.291828 -0.915352
H156  H     H_    0.399550 0.765255 0.216967 0.226446
H157  H     H_    0.470745 0.811535 0.302637 0.269946
H158  H     H_    0.489071 0.749432 0.281439 0.251353
C155  C     C_3   0.957692 0.747110 0.292332 -0.915461
H159  H     H_    0.901847 0.759109 0.220170 0.230830
H160  H     H_    0.994825 0.767766 0.291624 0.242254
H161  H     H_    0.963287 0.705505 0.288013 0.268772
C156  C     C_3   0.957620 0.276521 0.293685 -0.901238
H162  H     H_    0.899690 0.273400 0.218603 0.221711
H163  H     H_    0.973289 0.317439 0.308992 0.267635
H164  H     H_    0.987714 0.256481 0.279708 0.251152
C157  C     C_3   0.310890 0.058951 0.700117 -0.857107
H165  H     H_    0.286703 0.092659 0.703699 0.252106
H166  H     H_    0.325782 0.035376 0.762980 0.215810
H167  H     H_    0.359718 0.075486 0.724353 0.232428
C158  C     C_3   0.338554 0.951864 0.709394 -0.932508
H168  H     H_    0.334419 0.947986 0.765588 0.219627
H169  H     H_    0.355599 0.913593 0.706660 0.257656
H170  H     H_    0.384357 0.978251 0.748429 0.239057
C159  C     C_3   0.733900 0.558081 0.636410 -0.833425
H171  H     H_    0.704566 0.594638 0.617614 0.256431
H172  H     H_    0.717350 0.535833 0.668710 0.205220
H173  H     H_    0.791675 0.567637 0.699204 0.237305
C160  C     C_3   0.770016 0.453674 0.669638 -0.880188
H174  H     H_    0.737980 0.450202 0.688931 0.212336
H175  H     H_    0.797781 0.416673 0.693095 0.267674
H176  H     H_    0.813069 0.481021 0.726473 0.221678
N25   N     N_3   0.182203 0.047093 0.553023 -0.433186
H177  H     H_    0.139456 0.021631 0.502132 0.233807
H178  H     H_    0.184535 0.050975 0.612268 0.166301
N26   N     N_3   0.208063 0.948054 0.595949 -0.449683
H179  H     H_    0.208585 0.968323 0.645768 0.153948
H180  H     H_    0.221485 0.911902 0.629308 0.226620
N27   N     N_3   0.628249 0.544716 0.457432 -0.463458
H181  H     H_    0.594610 0.518684 0.397269 0.240084
H182  H     H_    0.605749 0.545760 0.487532 0.174976
N28   N     N_3   0.647638 0.445457 0.498947 -0.479101
H183  H     H_    0.627299 0.459870 0.527991 0.172013
H184  H     H_    0.650749 0.406024 0.509786 0.222654
C161  C     C_3   0.396237 0.051534 0.634239 -0.914558
H185  H     H_    0.413963 0.033226 0.702203 0.233680
H186  H     H_    0.442672 0.044140 0.642985 0.231850
H187  H     H_    0.394718 0.093752 0.640941 0.223235
C162  C     C_3   0.394992 0.942898 0.609572 -0.944609
H188  H     H_    0.425629 0.954398 0.688620 0.247755
H189  H     H_    0.388511 0.900780 0.606784 0.220862
H190  H     H_    0.433694 0.950268 0.602706 0.234706
C163  C     C_3   0.880216 0.551793 0.681881 -0.897561
H191  H     H_    0.875711 0.532594 0.729768 0.228664
H192  H     H_    0.938316 0.545306 0.725160 0.225683
H193  H     H_    0.875112 0.593760 0.685129 0.242592
C164  C     C_3   0.890600 0.443590 0.671025 -0.930281
H194  H     H_    0.892825 0.452356 0.731514 0.247801
H195  H     H_    0.888341 0.401172 0.663820 0.222932
H196  H     H_    0.945204 0.454956 0.704742 0.232193
N29   N     N_3   0.172129 0.043695 0.307144 -0.488047
H197  H     H_    0.122945 0.030650 0.235763 0.159811
H198  H     H_    0.167935 0.083175 0.295832 0.219476
N30   N     N_3   0.154415 0.941974 0.308646 -0.454543
H199  H     H_    0.180870 0.954723 0.288358 0.226210
H200  H     H_    0.098735 0.946899 0.242411 0.153779
N31   N     N_3   0.720543 0.545000 0.331547 -0.476975
H201  H     H_    0.688094 0.528906 0.258185 0.149394
H202  H     H_    0.711241 0.583505 0.310857 0.228593
N32   N     N_3   0.701916 0.443118 0.321000 -0.429554
H203  H     H_    0.745685 0.456852 0.334492 0.218585
H204  H     H_    0.656226 0.446850 0.241511 0.154858
N33   N     N_3   0.111690 0.054183 0.359180 -0.465422
H205  H     H_    0.064272 0.043456 0.283876 0.169316
H206  H     H_    0.113840 0.094123 0.356875 0.167450
N34   N     N_3   0.118370 0.954049 0.395162 -0.451247
H207  H     H_    0.066074 0.963250 0.324266 0.172354
H208  H     H_    0.117449 0.914140 0.400113 0.188806
N35   N     N_3   0.618399 0.552287 0.307067 -0.474367
H209  H     H_    0.588833 0.544730 0.229815 0.169749
H210  H     H_    0.620348 0.592076 0.314658 0.177549
N36   N     N_3   0.615116 0.452261 0.328524 -0.456598
H211  H     H_    0.576291 0.461667 0.250088 0.176850
H212  H     H_    0.613063 0.412227 0.329919 0.178244
N37   N     N_3   0.516935 0.158416 0.099585 -0.417959
H213  H     H_    0.492213 0.133923 0.112869 0.182939
H214  H     H_    0.516301 0.137729 0.050813 0.200701
N38   N     N_3   0.533106 0.846607 0.099442 -0.431844
H215  H     H_    0.510278 0.876269 0.107843 0.185618
H216  H     H_    0.537060 0.862408 0.051942 0.202472
N39   N     N_3   0.032266 0.653185 0.100316 -0.425360
H217  H     H_    0.008873 0.623979 0.108451 0.180758
H218  H     H_    0.036381 0.636880 0.053219 0.203175
N40   N     N_3   0.058054 0.349893 0.099930 -0.444048
H219  H     H_    0.037644 0.385457 0.096849 0.183654
H220  H     H_    0.069672 0.356607 0.057482 0.204802
N41   N     N_3   0.370056 0.455669 0.550983 -0.470709
H221  H     H_    0.378881 0.416302 0.557031 0.232098
H222  H     H_    0.399755 0.466955 0.534859 0.167624
N42   N     N_3   0.356393 0.554504 0.515323 -0.451478
H223  H     H_    0.352238 0.593680 0.501117 0.210873
H224  H     H_    0.379691 0.542065 0.489576 0.163745
N43   N     N_3   0.757935 0.955856 0.369910 -0.478013
H225  H     H_    0.767316 0.916213 0.377810 0.176538
H226  H     H_    0.732590 0.963769 0.294658 0.186986
N44   N     N_3   0.729650 0.055282 0.342003 -0.474032
H227  H     H_    0.722824 0.095119 0.337206 0.179422
H228  H     H_    0.701347 0.043366 0.267089 0.183461
N45   N     N_3   0.323364 0.056587 0.454799 -0.418566
H229  H     H_    0.373819 0.052347 0.479110 0.169427
H230  H     H_    0.286803 0.042567 0.380016 0.213511
N46   N     N_3   0.304936 0.955456 0.426705 -0.475801
H231  H     H_    0.345665 0.969743 0.432993 0.157278
H232  H     H_    0.311343 0.916377 0.423493 0.235433
N47   N     N_3   0.858936 0.556795 0.532513 -0.440115
H233  H     H_    0.915845 0.553517 0.587405 0.168898
H234  H     H_    0.842616 0.541405 0.466618 0.217482
N48   N     N_3   0.848809 0.454996 0.506985 -0.487698
H235  H     H_    0.901728 0.467058 0.546900 0.171239
H236  H     H_    0.851576 0.415239 0.504044 0.218600
C165  C     C_3   0.255949 0.451393 0.653069 -0.922319
H237  H     H_    0.293168 0.454035 0.738214 0.233848
H238  H     H_    0.211468 0.474428 0.628798 0.226872
H239  H     H_    0.238688 0.410563 0.633223 0.223357
C166  C     C_3   0.289791 0.559247 0.680661 -0.902502
H240  H     H_    0.329223 0.546043 0.762243 0.236343
H241  H     H_    0.298231 0.601203 0.683143 0.227472
H242  H     H_    0.237401 0.554547 0.655582 0.226887
C167  C     C_3   0.882382 0.951397 0.701910 -0.866406
H243  H     H_    0.942202 0.947025 0.752834 0.221957
H244  H     H_    0.882988 0.978214 0.747883 0.208672
H245  H     H_    0.866112 0.913474 0.706784 0.261855
C168  C     C_3   0.899295 0.056978 0.686283 -0.803859
H246  H     H_    0.949848 0.033549 0.737183 0.209953
H247  H     H_    0.920775 0.093605 0.685384 0.261800
H248  H     H_    0.886147 0.066456 0.729488 0.218330
C169  C     C_3   0.369790 0.440554 0.707545 -0.796937
H249  H     H_    0.411891 0.441122 0.707217 0.240001
H250  H     H_    0.397668 0.457303 0.783738 0.198111
H251  H     H_    0.363306 0.399804 0.717244 0.254938
C170  C     C_3   0.386864 0.543661 0.691465 -0.803462
H252  H     H_    0.414888 0.521657 0.676745 0.251103
H253  H     H_    0.399226 0.584299 0.694265 0.263912
H254  H     H_    0.419891 0.535854 0.774060 0.205398
C171  C     C_3   0.892281 0.943771 0.581037 -0.799147
H255  H     H_    0.878941 0.945454 0.509531 0.223313
H256  H     H_    0.946199 0.963179 0.637274 0.199512
H257  H     H_    0.908155 0.903538 0.607374 0.271222
C172  C     C_3   0.867702 0.046908 0.527748 -0.852792
H258  H     H_    0.848333 0.023992 0.461986 0.259897
H259  H     H_    0.855912 0.087486 0.503057 0.243670
H260  H     H_    0.928157 0.043825 0.584054 0.213792
C173  C     C_3   0.268371 0.440582 0.371602 -0.917667
H261  H     H_    0.215385 0.448889 0.294274 0.239786
H262  H     H_    0.307072 0.450530 0.365730 0.232104
H263  H     H_    0.271567 0.398299 0.381203 0.227087
C174  C     C_3   0.240680 0.550115 0.342551 -0.950977
H264  H     H_    0.192998 0.528596 0.277946 0.237218
H265  H     H_    0.226028 0.591304 0.333192 0.229029
H266  H     H_    0.275335 0.547541 0.327462 0.233056
C175  C     C_3   0.637945 0.940258 0.292547 -0.863439
H267  H     H_    0.595222 0.937664 0.291187 0.246662
H268  H     H_    0.612682 0.957850 0.218269 0.214352
H269  H     H_    0.648557 0.900248 0.285224 0.253404
C176  C     C_3   0.618423 0.046659 0.296063 -0.896890
H270  H     H_    0.580230 0.023713 0.289306 0.220990
H271  H     H_    0.607090 0.087384 0.295189 0.275077
H272  H     H_    0.596285 0.041904 0.217877 0.211999
C177  C     C_3   0.120969 0.451664 0.298958 -0.861263
H273  H     H_    0.123870 0.477946 0.256096 0.214305
H274  H     H_    0.136865 0.413403 0.294458 0.264344
H275  H     H_    0.060736 0.448754 0.246027 0.215292
C178  C     C_3   0.103268 0.556603 0.310636 -0.794799
H276  H     H_    0.117080 0.563635 0.267674 0.223426
H277  H     H_    0.052080 0.533910 0.259896 0.203963
H278  H     H_    0.082002 0.594258 0.308291 0.261645
C179  C     C_3   0.625483 0.953932 0.453492 -0.852193
H279  H     H_    0.588591 0.975849 0.382892 0.214155
H280  H     H_    0.613989 0.913113 0.433366 0.263775
H281  H     H_    0.601651 0.960687 0.484661 0.216290
C180  C     C_3   0.643402 0.059374 0.492590 -0.828928
H282  H     H_    0.599378 0.059662 0.408749 0.237494
H283  H     H_    0.619496 0.043119 0.519378 0.217348
H284  H     H_    0.652655 0.100151 0.516266 0.248942
C181  C     C_3   0.108662 0.443752 0.417240 -0.824273
H285  H     H_    0.057303 0.466245 0.369561 0.216010
H286  H     H_    0.087230 0.405494 0.380203 0.262912
H287  H     H_    0.127305 0.438476 0.491600 0.217197
C182  C     C_3   0.130413 0.549164 0.465820 -0.887850
H288  H     H_    0.069775 0.552501 0.404764 0.225684
H289  H     H_    0.137196 0.523781 0.518745 0.217466
H290  H     H_    0.149757 0.587455 0.501889 0.249327
C183  C     C_3   0.735249 0.941498 0.631295 -0.893411
H291  H     H_    0.701623 0.952991 0.645594 0.234378
H292  H     H_    0.729969 0.899175 0.621024 0.223813
H293  H     H_    0.789849 0.948920 0.706535 0.222265
C184  C     C_3   0.763312 0.049706 0.658953 -0.917045
H294  H     H_    0.732696 0.045366 0.680551 0.239819
H295  H     H_    0.812438 0.028614 0.720385 0.225784
H296  H     H_    0.777389 0.091076 0.668959 0.221654
C185  C     C_3   0.449965 0.216812 0.107845 -0.923038
H297  H     H_    0.429316 0.253796 0.105188 0.230762
H298  H     H_    0.403026 0.190217 0.066955 0.210685
H299  H     H_    0.487258 0.203734 0.188589 0.281579
C186  C     C_3   0.457015 0.800947 0.106709 -0.895954
H300  H     H_    0.434642 0.766696 0.109399 0.227210
H301  H     H_    0.494294 0.817671 0.185165 0.279613
H302  H     H_    0.411851 0.829365 0.061562 0.204504
C187  C     C_3   0.956357 0.700257 0.106696 -0.895783
H303  H     H_    0.933968 0.734781 0.108849 0.230513
H304  H     H_    0.911163 0.671927 0.062015 0.202982
H305  H     H_    0.993535 0.684042 0.185551 0.274311
C188  C     C_3   0.974281 0.323766 0.107602 -0.863432
H306  H     H_    0.950674 0.294934 0.119632 0.233072
H307  H     H_    0.015333 0.343596 0.183228 0.270387
H308  H     H_    0.932661 0.354338 0.059158 0.196854
N49   N     N_3   0.388792 0.330435 0.886069 -0.474743
H309  H     H_    0.353388 0.332130 0.806001 0.184574
H310  H     H_    0.395580 0.368578 0.909409 0.182979
N50   N     N_3   0.378474 0.679903 0.888621 -0.469738
H311  H     H_    0.340995 0.679886 0.808144 0.172878
H312  H     H_    0.379503 0.641984 0.908480 0.201663
N51   N     N_3   0.878536 0.819726 0.885078 -0.469297
H313  H     H_    0.843154 0.822669 0.805109 0.185262
H314  H     H_    0.879627 0.856632 0.908695 0.182165
N52   N     N_3   0.866015 0.198675 0.889057 -0.462344
H315  H     H_    0.828404 0.196942 0.808640 0.176705
H316  H     H_    0.858665 0.164075 0.909751 0.199760
C189  C     C_3   0.480290 0.330805 0.097174 -0.912416
H317  H     H_    0.422192 0.323953 0.047177 0.229062
H318  H     H_    0.511332 0.318202 0.177097 0.220716
H319  H     H_    0.479829 0.373507 0.099810 0.227123
C190  C     C_3   0.470859 0.681694 0.098771 -0.914929
H320  H     H_    0.504711 0.694930 0.179212 0.221116
H321  H     H_    0.414535 0.694355 0.049716 0.229279
H322  H     H_    0.463269 0.639819 0.100416 0.231877
C191  C     C_3   0.970100 0.818877 0.095714 -0.913166
H323  H     H_    0.913800 0.806306 0.046379 0.228946
H324  H     H_    0.003572 0.806198 0.176332 0.223582
H325  H     H_    0.962208 0.860862 0.096145 0.227447
C192  C     C_3   0.958538 0.202881 0.097703 -0.912493
H326  H     H_    0.996517 0.214192 0.179807 0.227020
H327  H     H_    0.907890 0.224657 0.051273 0.228445
H328  H     H_    0.938033 0.164369 0.093531 0.228323
N53   N     N_3   0.546004 0.256474 0.896153 -0.463691
H329  H     H_    0.511920 0.249014 0.817588 0.220874
H330  H     H_    0.597248 0.244567 0.928397 0.165172
N54   N     N_3   0.546043 0.729460 0.896403 -0.480542
H331  H     H_    0.598994 0.736049 0.929838 0.166266
H332  H     H_    0.514449 0.736576 0.818538 0.228496
N55   N     N_3   0.046284 0.768790 0.896491 -0.461498
H333  H     H_    0.014723 0.761364 0.818632 0.226103
H334  H     H_    0.099285 0.762121 0.930125 0.162380
N56   N     N_3   0.041677 0.209201 0.896655 -0.478147
H335  H     H_    0.095901 0.207178 0.932870 0.159293
H336  H     H_    0.014905 0.215156 0.820310 0.234835
C193  C     C_3   0.517352 0.170471 0.900427 -0.963821
H337  H     H_    0.465298 0.165624 0.818155 0.227368
H338  H     H_    0.560977 0.162921 0.903152 0.230059
H339  H     H_    0.524692 0.138626 0.946070 0.243625
C194  C     C_3   0.530050 0.818900 0.900323 -0.951639
H340  H     H_    0.572650 0.819610 0.899618 0.227602
H341  H     H_    0.477840 0.826038 0.819083 0.227823
H342  H     H_    0.544999 0.852557 0.947803 0.241934
C195  C     C_3   0.030152 0.679330 0.900957 -0.961891
H343  H     H_    0.977905 0.672154 0.819788 0.227401
H344  H     H_    0.072818 0.678293 0.900393 0.230111
H345  H     H_    0.044908 0.645880 0.948775 0.245185
C196  C     C_3   0.045386 0.300586 0.899979 -0.944822
H346  H     H_    0.084629 0.291271 0.894760 0.225971
H347  H     H_    0.994111 0.311670 0.820557 0.231533
H348  H     H_    0.071246 0.334508 0.949734 0.241313
N57   N     N_3   0.620623 0.179984 0.112081 -0.468198
H349  H     H_    0.645637 0.166393 0.089430 0.182798
H350  H     H_    0.662815 0.182900 0.192495 0.178834
N58   N     N_3   0.632805 0.809190 0.111922 -0.475509
H351  H     H_    0.660546 0.815636 0.090507 0.183770
H352  H     H_    0.673359 0.806631 0.192449 0.179347
N59   N     N_3   0.132272 0.689132 0.112734 -0.472214
H353  H     H_    0.159895 0.681625 0.091410 0.187038
H354  H     H_    0.172902 0.692003 0.193213 0.179873
N60   N     N_3   0.147301 0.290656 0.112221 -0.481029
H355  H     H_    0.174951 0.288122 0.089925 0.180248
H356  H     H_    0.187415 0.287797 0.192651 0.191364

loop_
_geom_bond_atom_site_label_1
_geom_bond_atom_site_label_2
_ccdc_geom_bond_type
C68   N48   S    
N15   H50   S    
C146  H124  S    
C61   C157  S    
C131  H80   S    
C182  H288  S    
C109  N1    S    
C34   C42   S    
C20   C120  S    
C116  C188  S    
O4    Zn8   S    
C79   C87   S    
C141  H109  S    
C23   N7    S    
C183  H291  S    
C127  H69   S    
N3    H14   S    
C77   C89   S    
C117  N9    S    
N57   H349  S    
C105  O41   A    
C98   O10   A    
C84   N44   S    
C189  H317  S    
O1    Zn5   S    
C153  H154  S    
C177  H273  S    
C90   O6    A    
C183  H293  S    
C172  H260  S    
C174  H264  S    
C33   N21   S    
N1    H10   S    
N52   H315  S    
O22   Zn14  S    
C151  H141  S    
C158  H169  S    
C25   N13   S    
N54   H331  S    
C120  N52   S    
N43   H226  S    
C22   N6    S    
C70   C74   S    
C156  H163  S    
C67   N47   S    
C18   C118  S    
O51   Zn3   S    
C18   C122  S    
O41   Zn13  S    
C149  H135  S    
C134  H89   S    
N49   H310  S    
C124  H42   S    
C80   C88   S    
N51   H314  S    
C21   N57   S    
C145  H122  S    
C35   C131  S    
N50   H311  S    
C194  H341  S    
C81   N41   S    
C112  C140  S    
C194  H340  S    
C53   C153  S    
C88   C184  S    
C25   C29   S    
C147  H129  S    
N44   H228  S    
C118  N10   S    
N31   H201  S    
C28   C32   S    
C3    O15   A    
O43   Zn15  S    
C11   C119  S    
C150  H138  S    
C116  N40   S    
C12   C108  S    
N4    H15   S    
C178  H278  S    
C107  O43   A    
O2    Zn14  S    
C175  H267  S    
C36   N24   S    
C28   C44   S    
C170  H254  S    
C61   N25   S    
C192  H326  S    
C59   C151  S    
C136  H96   S    
C162  H188  S    
C69   N29   S    
N35   H210  S    
C147  H128  S    
C78   C82   S    
N11   H29   S    
C16   C20   S    
C180  H284  S    
C13   C21   S    
N39   H218  S    
C153  H155  S    
C196  H348  S    
N12   H32   S    
C93   C165  S    
C191  H323  S    
O50   Zn2   S    
N26   H179  S    
N30   H200  S    
C34   C54   S    
C146  H126  S    
C169  H250  S    
C152  H142  S    
C182  H290  S    
N20   H60   S    
C36   C44   S    
C171  H255  S    
N40   H219  S    
C83   N43   S    
C110  C114  S    
O34   Zn10  S    
C141  H111  S    
C71   N35   S    
C132  H84   S    
N55   H334  S    
C107  O51   A    
O38   Zn6   S    
O3    Zn15  S    
C105  O49   A    
C4    O16   A    
C89   O29   A    
C76   C100  S    
C25   H1    S    
C110  N2    S    
C113  C185  S    
C4    C49   S    
C92   O32   A    
C150  H137  S    
C127  H67   S    
C34   N22   S    
C128  H71   S    
C195  H343  S    
C86   C182  S    
C46   O18   A    
C78   C94   S    
C49   C53   S    
N25   H178  S    
C119  N51   S    
C160  H176  S    
C95   C167  S    
C51   C55   S    
C56   H8    S    
C69   C70   S    
C178  H277  S    
N56   H335  S    
C19   C123  S    
C131  H79   S    
C5    C21   S    
N6    H19   S    
N37   H213  S    
N32   H203  S    
C124  H44   S    
C41   C45   S    
C123  H40   S    
C186  H300  S    
C155  H159  S    
C43   C47   S    
N54   H332  S    
C37   C57   S    
C44   C48   S    
N14   H47   S    
C189  H318  S    
O3    Zn7   S    
C2    O22   A    
C103  O39   A    
C159  H171  S    
C40   C60   S    
C162  H190  S    
C37   C133  S    
C101  O45   A    
N59   H353  S    
O7    Zn3   S    
C62   N26   S    
C125  H63   S    
C57   C149  S    
C154  H156  S    
C36   C132  S    
C74   C98   S    
C29   C49   S    
C185  H297  S    
N41   H221  S    
N13   H45   S    
N9    H25   S    
C45   O17   A    
C31   C127  S    
O29   Zn5   S    
N17   H53   S    
O27   Zn3   S    
C135  H92   S    
C104  O40   A    
C9    C105  S    
C66   C74   S    
C15   C115  S    
C49   C57   S    
C8    N56   S    
C123  H39   S    
O31   Zn7   S    
C138  H101  S    
C94   C166  S    
C191  H325  S    
C52   C60   S    
O21   Zn13  S    
C32   C52   S    
O19   Zn11  S    
N22   H147  S    
C133  H86   S    
O1    Zn9   S    
C192  H328  S    
C180  H282  S    
C10   C110  S    
C35   C43   S    
C121  H33   S    
O4    Zn12  S    
C79   C91   S    
C70   N34   S    
C5    N53   S    
C77   C85   S    
C102  O38   A    
C7    C195  S    
C126  H64   S    
N60   H356  S    
C139  H104  S    
C99   O11   A    
C181  H285  S    
O6    Zn2   S    
N33   H205  S    
C97   O9    A    
N38   H215  S    
C184  H295  S    
C3    C50   S    
C168  H246  S    
C142  H113  S    
C29   C125  S    
C4    O24   A    
C47   O19   A    
N45   H230  S    
C89   O5    A    
O24   Zn16  S    
C31   N19   S    
O4    Zn16  S    
N34   H207  S    
C6    N54   S    
N24   H151  S    
C148  H132  S    
C176  H271  S    
C67   C163  S    
C126  H66   S    
C156  H164  S    
N58   H352  S    
C181  H287  S    
C5    C9    S    
C130  H76   S    
C65   N45   S    
O12   Zn16  S    
N8    H24   S    
C83   C84   S    
C8    C12   S    
C137  H99   S    
C75   C99   S    
N5    H17   S    
C165  H238  S    
C96   C172  S    
C186  H302  S    
C69   C73   S    
C166  H241  S    
C18   C190  S    
C26   N14   S    
C99   O35   A    
C177  H274  S    
N2    H12   S    
C20   C124  S    
N11   H30   S    
C55   H7    S    
C26   C30   S    
C144  H120  S    
C28   N16   S    
C108  O44   A    
C84   C176  S    
C2    O14   A    
C167  H243  S    
C10   C106  S    
C67   C75   S    
C144  H119  S    
N47   H233  S    
C39   C135  S    
C112  C116  S    
C188  H308  S    
C63   N27   S    
C26   C42   S    
C192  H327  S    
C177  H275  S    
O5    Zn1   S    
N23   H150  S    
N29   H197  S    
C81   C173  S    
C72   N32   S    
C31   C51   S    
C82   N42   S    
N19   H57   S    
C28   H4    S    
C127  H68   S    
C115  N39   S    
C13   C17   S    
C24   N60   S    
C123  H41   S    
C111  C139  S    
C167  H244  S    
N16   H51   S    
C156  H162  S    
C20   C192  S    
C190  H320  S    
C14   C103  S    
C63   C75   S    
C7    C23   S    
C8    C24   S    
C37   C41   S    
C61   C62   S    
C121  H35   S    
N52   H316  S    
C151  H140  S    
C38   C142  S    
C63   C64   S    
O2    Zn10  S    
C16   C101  S    
C40   C44   S    
C51   C59   S    
C157  H166  S    
C176  H270  S    
C167  H245  S    
N39   H217  S    
O35   Zn11  S    
N21   H146  S    
O36   Zn12  S    
C106  O50   A    
N46   H231  S    
N53   H330  S    
O20   Zn12  S    
C132  H83   S    
C87   C88   S    
C157  H165  S    
O40   Zn8   S    
C148  H131  S    
C160  H175  S    
C32   N20   S    
C12   C112  S    
C80   C84   S    
C72   N36   S    
N10   H27   S    
C185  H299  S    
N50   H312  S    
C145  H121  S    
O28   Zn4   S    
C17   C189  S    
N55   H333  S    
C58   C146  S    
C78   C90   S    
O10   Zn14  S    
C15   C19   S    
C54   H6    S    
C50   C54   S    
C94   C170  S    
C140  H106  S    
N46   H232  S    
N59   H354  S    
C149  H133  S    
C171  H257  S    
C193  H338  S    
O16   Zn8   S    
C165  H237  S    
N4    H16   S    
C161  H186  S    
C6    C22   S    
C16   C116  S    
N27   H182  S    
C168  H248  S    
C42   C46   S    
O23   Zn15  S    
C164  H195  S    
N28   H183  S    
C98   O34   A    
C38   C58   S    
O3    Zn3   S    
C129  H75   S    
O11   Zn15  S    
C180  H283  S    
C16   C24   S    
O52   Zn4   S    
C1    O21   A    
N58   H351  S    
C143  H116  S    
C91   O31   A    
C17   C117  S    
C187  H305  S    
N26   H180  S    
C48   O28   A    
C19   C119  S    
C146  H125  S    
C160  H174  S    
C169  H249  S    
C174  H265  S    
C92   O8    A    
N40   H220  S    
C164  H194  S    
O30   Zn6   S    
C196  H347  S    
C141  H110  S    
C136  H95   S    
N42   H224  S    
C188  H306  S    
C23   N59   S    
C140  H107  S    
C144  H118  S    
C9    C109  S    
C46   O26   A    
C11   C111  S    
C67   C68   S    
C50   C58   S    
C155  H161  S    
C104  O48   A    
N25   H177  S    
C190  H322  S    
O42   Zn14  S    
C61   C73   S    
C85   C86   S    
C27   C31   S    
C81   C82   S    
N10   H28   S    
C80   C96   S    
C73   C97   S    
C79   C95   S    
C173  H261  S    
C172  H259  S    
C5    C193  S    
N18   H56   S    
C63   C159  S    
C40   C144  S    
C176  H272  S    
C39   C59   S    
O8    Zn4   S    
C103  O47   A    
C130  H78   S    
C100  O36   A    
C110  C138  S    
C101  O37   A    
C8    C196  S    
N24   H152  S    
O46   Zn10  S    
O25   Zn1   S    
C157  H167  S    
N32   H204  S    
C124  H43   S    
C175  H269  S    
N37   H214  S    
C111  N3    S    
C66   C162  S    
C145  H123  S    
N14   H48   S    
N21   H145  S    
C193  H337  S    
C161  H185  S    
C64   C160  S    
C120  N12   S    
N44   H227  S    
C19   C191  S    
C60   C148  S    
O17   Zn9   S    
C93   C169  S    
C132  H82   S    
C161  H187  S    
C6    C10   S    
C183  H292  S    
C33   C129  S    
C130  H77   S    
C17   C121  S    
C128  H72   S    
C137  H97   S    
C33   C41   S    
C71   N31   S    
C112  N4    S    
N12   H31   S    
C14   C114  S    
C170  H253  S    
O4    Zn4   S    
C79   C83   S    
C139  H105  S    
N19   H58   S    
C14   C22   S    
C135  H91   S    
C22   N58   S    
C85   C181  S    
C21   N5    S    
N48   H235  S    
N7    H21   S    
C138  H100  S    
C1    C52   S    
C66   N46   S    
C191  H324  S    
N7    H22   S    
C1    O13   A    
C2    C51   S    
C27   C43   S    
C71   C72   S    
C91   O7    A    
N30   H199  S    
N22   H148  S    
C133  H85   S    
C106  O42   A    
C169  H251  S    
C35   N23   S    
C152  H143  S    
N20   H59   S    
C62   C74   S    
C26   H2    S    
C148  H130  S    
C153  H153  S    
C27   N15   S    
C115  C187  S    
C58   C150  S    
C97   O33   A    
C118  N50   S    
C68   C164  S    
C7    N55   S    
N3    H13   S    
N47   H234  S    
C114  N38   S    
C80   C92   S    
C93   C94   S    
C179  H281  S    
C164  H196  S    
C9    C117  S    
C139  H103  S    
C14   C18   S    
C113  N37   S    
C95   C96   S    
C193  H339  S    
C87   C179  S    
C57   C145  S    
N38   H216  S    
C184  H294  S    
N8    H23   S    
C119  N11   S    
N23   H149  S    
C25   C41   S    
C134  H88   S    
C7    C11   S    
N18   H55   S    
N45   H229  S    
C128  H70   S    
C54   C154  S    
C36   C56   S    
C134  H90   S    
N34   H208  S    
C38   C42   S    
C173  H263  S    
C195  H344  S    
O47   Zn11  S    
O49   Zn1   S    
O48   Zn12  S    
C155  H160  S    
N43   H225  S    
C122  H37   S    
C48   O20   A    
C65   C73   S    
C108  O52   A    
C86   C178  S    
C181  H286  S    
N29   H198  S    
C162  H189  S    
N42   H223  S    
C100  O12   A    
C168  H247  S    
C12   C120  S    
N2    H11   S    
C137  H98   S    
C29   N17   S    
N51   H313  S    
C55   C155  S    
C125  H62   S    
C165  H239  S    
C77   C81   S    
C158  H170  S    
C186  H301  S    
C166  H240  S    
C159  H173  S    
C109  C113  S    
C53   H5    S    
C189  H319  S    
C13   C104  S    
C163  H193  S    
C15   C23   S    
C187  H304  S    
C70   N30   S    
C136  H94   S    
C38   C134  S    
C129  H74   S    
C154  H157  S    
C140  H108  S    
C175  H268  S    
C65   C161  S    
C185  H298  S    
C33   C53   S    
O14   Zn6   S    
O9    Zn13  S    
N13   H46   S    
C114  C186  S    
C35   C55   S    
C190  H321  S    
O33   Zn9   S    
C32   C128  S    
O2    Zn2   S    
N35   H209  S    
N17   H54   S    
C6    C194  S    
C27   H3    S    
C56   C156  S    
C135  H93   S    
C39   C43   S    
C163  H192  S    
C170  H252  S    
C88   C180  S    
C39   C143  S    
O37   Zn5   S    
C143  H117  S    
C90   O30   A    
C138  H102  S    
N48   H236  S    
C109  C137  S    
C10   C118  S    
C152  H144  S    
C34   C130  S    
N1    H9    S    
C133  H87   S    
O39   Zn7   S    
C85   C177  S    
C172  H258  S    
C64   C76   S    
C82   C174  S    
C69   N33   S    
C72   C76   S    
C68   C76   S    
C173  H262  S    
N36   H212  S    
C154  H158  S    
C121  H34   S    
C151  H139  S    
C59   C147  S    
N56   H336  S    
C117  N49   S    
C60   C152  S    
C163  H191  S    
C126  H65   S    
C11   C107  S    
N60   H355  S    
C131  H81   S    
C122  H38   S    
C62   C158  S    
O13   Zn5   S    
O32   Zn8   S    
N15   H49   S    
N16   H52   S    
C184  H296  S    
C77   C93   S    
C129  H73   S    
N53   H329  S    
C158  H168  S    
C142  H114  S    
O1    Zn1   S    
C30   C126  S    
O15   Zn7   S    
C37   C141  S    
C87   C183  S    
N6    H20   S    
C174  H266  S    
C179  H280  S    
O1    Zn13  S    
O2    Zn6   S    
C187  H303  S    
O3    Zn11  S    
C102  O46   A    
C147  H127  S    
C3    O23   A    
N36   H211  S    
N49   H309  S    
C195  H345  S    
C64   N28   S    
N33   H206  S    
N41   H222  S    
C188  H307  S    
N9    H26   S    
C95   C171  S    
C150  H136  S    
C71   C75   S    
C96   C168  S    
C30   C50   S    
C78   C86   S    
C178  H276  S    
C182  H289  S    
C47   O27   A    
O26   Zn2   S    
O45   Zn9   S    
C194  H342  S    
N5    H18   S    
N57   H350  S    
C30   N18   S    
C83   C175  S    
C15   C102  S    
C179  H279  S    
C166  H242  S    
N28   H184  S    
O44   Zn16  S    
N27   H181  S    
C171  H256  S    
C45   O25   A    
C159  H172  S    
C65   C66   S    
C196  H346  S    
N31   H202  S    
C142  H112  S    
O18   Zn10  S    
C111  C115  S    
C149  H134  S    
C143  H115  S    
C122  H36   S    
C13   C113  S    
C40   C136  S    
C52   C56   S    
C24   N8    S    
C125  H61   S    
