data_str_m3_o3_o3_f0_pcu.sym.75
_audit_creation_date              2012-12-10T20:19:51-0500
_audit_creation_method            fapswitch 2.2
_symmetry_space_group_name_H-M    P1
_symmetry_Int_Tables_number       1
_space_group_crystal_system       triclinic
_cell_length_a                    27.586806
_cell_length_b                    25.740337
_cell_length_c                    18.563972
_cell_angle_alpha                 88.94395
_cell_angle_beta                  89.512294
_cell_angle_gamma                 91.444697
_cell_volume                      13175.1992443

loop_
_atom_site_label
_atom_site_type_symbol
_atom_type_description
_atom_site_fract_x
_atom_site_fract_y
_atom_site_fract_z
_atom_type_partial_charge
C1    C     C_R   0.069120 0.434769 0.499886 0.842199
C2    C     C_R   0.706998 0.335686 0.487100 0.154355
C3    C     C_R   0.536069 0.976121 0.037343 -0.189454
C4    C     C_R   0.998280 0.499990 0.842070 -0.037754
C5    C     C_R   0.999287 0.499750 0.157468 -0.029348
C6    C     C_R   0.498321 0.999263 0.842151 -0.037604
C7    C     C_R   0.498856 0.999419 0.157495 -0.026993
C8    C     C_R   0.104377 0.610801 0.499460 -0.159134
C9    C     C_R   0.882795 0.408050 0.504396 -0.122881
C10   C     C_R   0.887474 0.596790 0.496681 -0.177638
C11   C     C_R   0.113524 0.404666 0.496805 -0.192664
C12   C     C_R   0.604426 0.110646 0.499642 -0.159624
C13   C     C_R   0.740448 0.298963 0.598231 0.161185
C14   C     C_R   0.383121 0.907764 0.504370 -0.120424
C15   C     C_R   0.387151 0.096614 0.495789 -0.199559
C16   C     C_R   0.614876 0.906499 0.497094 -0.204570
C17   C     C_3   0.007057 0.640462 0.725366 -0.827834
C18   C     C_3   0.050700 0.375817 0.296667 -0.805915
C19   C     C_3   0.987758 0.359510 0.731908 -0.851887
C20   C     C_3   0.946304 0.621271 0.292330 -0.766288
C21   C     C_3   0.510691 0.140221 0.726987 -0.842290
C22   C     C_3   0.554337 0.878698 0.298072 -0.758427
C23   C     C_3   0.490020 0.859796 0.732012 -0.846001
C24   C     C_R   0.165672 0.804153 0.494203 0.165438
C25   C     C_3   0.444508 0.120179 0.293411 -0.765173
C26   C     C_3   0.055136 0.577940 0.841207 -0.888573
C27   C     C_3   0.988674 0.401867 0.159826 -0.879016
C28   C     C_3   0.939374 0.423710 0.843152 -0.887165
C29   C     C_3   0.008940 0.597816 0.154163 -0.889009
C30   C     C_3   0.557013 0.075670 0.841891 -0.888303
C31   C     C_3   0.491048 0.901173 0.160598 -0.882321
C32   C     C_3   0.439014 0.923244 0.842267 -0.886780
C33   C     C_3   0.506385 0.097688 0.153829 -0.888807
C34   C     C_3   0.113465 0.617477 0.327645 -0.766211
C35   C     C_R   0.805708 0.765622 0.448683 0.161245
C36   C     C_3   0.860406 0.462123 0.669521 -0.724440
C37   C     C_3   0.896436 0.359177 0.338896 -0.782874
C38   C     C_3   0.143292 0.576830 0.680168 -0.746596
C39   C     C_3   0.886251 0.610354 0.673289 -0.752630
C40   C     C_3   0.145677 0.464381 0.323322 -0.776487
C41   C     C_3   0.111625 0.375568 0.672509 -0.760898
C42   C     C_3   0.824895 0.540510 0.332857 -0.809724
C43   C     C_3   0.611591 0.119661 0.327757 -0.765047
C44   C     C_3   0.358660 0.971182 0.661541 -0.712368
C45   C     C_3   0.400780 0.852152 0.344506 -0.791666
C46   C     C_R   0.200588 0.243156 0.441059 0.158306
C47   C     C_3   0.644362 0.074459 0.678909 -0.747991
C48   C     C_3   0.392957 0.128393 0.673393 -0.772341
C49   C     C_3   0.669318 0.964804 0.323815 -0.819770
C50   C     C_3   0.616573 0.890485 0.676086 -0.753354
C51   C     C_3   0.324317 0.033509 0.336740 -0.811688
C52   C     C_3   0.178795 0.752288 0.680767 -0.934768
C53   C     C_3   0.710449 0.376531 0.427231 -0.891826
C54   C     C_3   0.778937 0.297422 0.656077 -0.896752
C55   C     C_3   0.118484 0.820088 0.460405 -0.939297
C56   C     C_3   0.859640 0.774955 0.435571 -0.912054
C57   C     C_R   0.270922 0.303395 0.450027 0.154607
C58   C     C_3   0.146967 0.234630 0.426340 -0.906778
C59   C     C_3   0.291456 0.358089 0.460114 -0.895180
C60   C     C_3   0.715017 0.649514 0.466011 -0.900744
C61   C     C_3   0.682065 0.249926 0.682346 -0.934350
C62   C     C_3   0.213082 0.875011 0.423069 -0.891960
C63   C     C_3   0.275858 0.800276 0.658294 -0.895680
C64   C     C_3   0.616972 0.320062 0.466673 -0.937475
C65   C     C_3   0.355844 0.269980 0.431795 -0.906335
C66   C     C_3   0.650211 0.738144 0.441489 -0.905328
C67   C     C_3   0.794700 0.863086 0.462750 -0.897325
C68   C     C_R   0.735318 0.704744 0.456666 0.155690
C69   C     C_3   0.210276 0.145475 0.456614 -0.904946
C70   C     C_R   0.697539 0.268814 0.607746 0.153233
C71   C     C_R   0.208102 0.835331 0.484258 0.154858
C72   C     C_R   0.238836 0.800559 0.598333 0.160841
C73   C     C_R   0.930822 0.565103 0.499681 0.890527
C74   C     C_R   0.664903 0.304114 0.498055 0.164536
C75   C     C_R   0.301779 0.260950 0.443894 0.158080
C76   C     C_R   0.704312 0.747139 0.451790 0.161364
C77   C     C_R   0.774704 0.807877 0.455564 0.154926
C78   C     C_R   0.231184 0.200484 0.448340 0.158243
C79   C     C_R   0.746528 0.329104 0.534011 -0.011213
C80   C     C_R   0.166212 0.762901 0.545650 0.018769
C81   C     C_R   0.220244 0.293971 0.449690 -0.004549
C82   C     C_R   0.785978 0.714455 0.455662 -0.006507
C83   C     C_R   0.246494 0.829458 0.533396 -0.011538
C84   C     C_R   0.930770 0.433921 0.500842 0.890440
C85   C     C_R   0.666667 0.262099 0.548164 0.019379
C86   C     C_R   0.724140 0.798051 0.458133 -0.009206
C87   C     C_R   0.281831 0.209857 0.450853 -0.004718
C88   C     C_R   0.998847 0.499628 0.076229 0.183113
C89   C     C_R   0.998155 0.499468 0.922990 0.192570
C90   C     C_R   0.498443 0.999056 0.076270 0.180781
C91   C     C_R   0.497919 0.998542 0.923052 0.192455
C92   C     C_R   0.014179 0.544084 0.726476 0.256214
C93   C     C_R   0.002292 0.453751 0.274206 0.281621
C94   C     C_R   0.984360 0.456234 0.728409 0.276565
C95   C     C_R   0.068254 0.567666 0.499339 0.843751
C96   C     C_R   0.997127 0.545984 0.271670 0.291301
C97   C     C_R   0.515032 0.043569 0.726953 0.262393
C98   C     C_R   0.503020 0.953820 0.274350 0.294959
C99   C     C_R   0.484263 0.956148 0.728165 0.272010
C100  C     C_R   0.496265 0.045835 0.271586 0.293043
C101  C     C_R   0.021965 0.540337 0.802401 0.083328
C102  C     C_R   0.997570 0.452776 0.197865 0.067866
C103  C     C_R   0.974878 0.460095 0.803860 0.081654
C104  C     C_R   0.001204 0.546811 0.195170 0.064724
C105  C     C_R   0.522839 0.039230 0.802842 0.084787
C106  C     C_R   0.569462 0.935174 0.499886 0.843577
C107  C     C_R   0.498331 0.952540 0.198099 0.064826
C108  C     C_R   0.474581 0.959834 0.803520 0.082871
C109  C     C_R   0.499890 0.046597 0.195028 0.065605
C110  C     C_R   0.103419 0.650796 0.446695 0.179519
C111  C     C_R   0.847178 0.427926 0.551236 0.146251
C112  C     C_R   0.871508 0.364327 0.462515 0.157817
C113  C     C_R   0.135009 0.616862 0.559147 0.199042
C114  C     C_R   0.879839 0.635573 0.547842 0.171760
C115  C     C_R   0.146968 0.415158 0.439375 0.196056
C116  C     C_R   0.121805 0.363066 0.545486 0.173140
C117  C     C_R   0.431056 0.065546 0.499526 0.865503
C118  C     C_R   0.855742 0.591599 0.437111 0.161738
C119  C     C_R   0.602924 0.151287 0.447932 0.176854
C120  C     C_R   0.346563 0.929426 0.547767 0.143145
C121  C     C_R   0.373035 0.862042 0.466121 0.156760
C122  C     C_R   0.635527 0.115959 0.558914 0.199708
C123  C     C_R   0.378894 0.136826 0.544785 0.180010
C124  C     C_R   0.646413 0.914705 0.436464 0.183871
C125  C     C_R   0.626765 0.869599 0.551167 0.176367
C126  C     C_R   0.354364 0.088231 0.437999 0.173279
C127  C     C_R   0.123936 0.699479 0.461741 -0.248403
C128  C     C_R   0.430945 0.933748 0.500842 0.898779
C129  C     C_R   0.801713 0.403433 0.556847 -0.231587
C130  C     C_R   0.826492 0.338605 0.472160 -0.231701
C131  C     C_R   0.156377 0.665657 0.571858 -0.202674
C132  C     C_R   0.845244 0.672769 0.534593 -0.232521
C133  C     C_R   0.182261 0.378988 0.424109 -0.206781
C134  C     C_R   0.159000 0.329248 0.531244 -0.184136
C135  C     C_R   0.823258 0.631387 0.422991 -0.204773
C136  C     C_R   0.623643 0.199734 0.463712 -0.248637
C137  C     C_R   0.301226 0.904662 0.553775 -0.231161
C138  C     C_R   0.328000 0.836404 0.475873 -0.229578
C139  C     C_R   0.568258 0.067622 0.499352 0.842260
C140  C     C_R   0.657015 0.164563 0.572405 -0.203056
C141  C     C_R   0.341508 0.170822 0.532135 -0.192027
C142  C     C_R   0.683003 0.879079 0.424511 -0.205577
C143  C     C_R   0.665467 0.837236 0.539856 -0.184560
C144  C     C_R   0.320047 0.126089 0.423049 -0.205943
C145  C     C_R   0.146257 0.709452 0.528192 0.065374
C146  C     C_R   0.792123 0.357933 0.519786 0.099135
C147  C     C_R   0.818660 0.671888 0.471073 0.078226
C148  C     C_R   0.187140 0.335350 0.468657 0.054261
C149  C     C_R   0.646566 0.208868 0.529951 0.065306
C150  C     C_R   0.195762 0.770465 0.606533 0.153117
C151  C     C_R   0.292588 0.857548 0.520117 0.099080
C152  C     C_R   0.314258 0.167429 0.469375 0.055992
C153  C     C_R   0.691379 0.839937 0.475089 0.059214
C154  C     C_R   0.035607 0.475855 0.961443 -0.198874
C155  C     C_R   0.961051 0.522671 0.037545 -0.188152
C156  C     C_R   0.961015 0.523125 0.961802 -0.199559
C157  C     C_R   0.036252 0.476458 0.037119 -0.191505
C158  C     C_R   0.535493 0.975310 0.961690 -0.200539
C159  C     C_R   0.460436 0.021546 0.037410 -0.188729
C160  C     C_R   0.460488 0.021842 0.961674 -0.198247
H1    H     H_    0.123379 0.728341 0.419225 0.163024
H2    H     H_    0.273165 0.921194 0.586832 0.152307
H3    H     H_    0.854912 0.585016 0.657829 0.239338
H4    H     H_    0.133564 0.495436 0.426335 0.223584
H5    H     H_    0.174900 0.490577 0.301145 0.232098
H6    H     H_    0.110171 0.479354 0.305833 0.252668
H7    H     H_    0.150183 0.425148 0.300761 0.231572
H8    H     H_    0.056028 0.357662 0.600246 0.224087
H9    H     H_    0.090902 0.360150 0.719917 0.234374
H10   H     H_    0.108813 0.418553 0.670033 0.252215
H11   H     H_    0.150169 0.365227 0.679896 0.237825
H12   H     H_    0.863823 0.512340 0.420462 0.233025
H13   H     H_    0.320581 0.800070 0.449011 0.144461
H14   H     H_    0.832698 0.503887 0.304747 0.239393
H15   H     H_    0.830276 0.573089 0.293330 0.239331
H16   H     H_    0.786751 0.538432 0.352615 0.236011
H17   H     H_    0.565115 0.177072 0.359006 0.219228
H18   H     H_    0.643777 0.145114 0.314945 0.228617
H19   H     H_    0.591145 0.112934 0.277423 0.239490
H20   H     H_    0.623784 0.081557 0.348811 0.252756
H21   H     H_    0.330736 0.005125 0.569657 0.215173
H22   H     H_    0.371247 0.008529 0.684595 0.230694
H23   H     H_    0.385124 0.940991 0.675786 0.264124
H24   H     H_    0.683105 0.166285 0.615064 0.174114
H25   H     H_    0.322797 0.960149 0.685720 0.208158
H26   H     H_    0.412874 0.801497 0.429476 0.223296
H27   H     H_    0.430427 0.835578 0.312088 0.239654
H28   H     H_    0.400707 0.894853 0.334491 0.263546
H29   H     H_    0.365741 0.834616 0.326728 0.232569
H30   H     H_    0.642720 0.035408 0.579923 0.220070
H31   H     H_    0.618956 0.043317 0.699259 0.244451
H32   H     H_    0.630676 0.112530 0.696263 0.242323
H33   H     H_    0.680418 0.068444 0.703263 0.228489
H34   H     H_    0.446612 0.144053 0.593477 0.219032
H35   H     H_    0.336185 0.202685 0.568552 0.163627
H36   H     H_    0.400444 0.158684 0.713839 0.235409
H37   H     H_    0.412242 0.092678 0.689167 0.248474
H38   H     H_    0.353258 0.119607 0.673746 0.238263
H39   H     H_    0.634296 0.993001 0.414842 0.226330
H40   H     H_    0.656911 0.998987 0.292326 0.238551
H41   H     H_    0.664770 0.930127 0.289582 0.241274
H42   H     H_    0.708100 0.971310 0.337470 0.235412
H43   H     H_    0.562003 0.862165 0.608259 0.227480
H44   H     H_    0.655288 0.882050 0.685975 0.235637
H45   H     H_    0.595500 0.878775 0.725081 0.232726
H46   H     H_    0.704662 0.880622 0.375698 0.157730
H47   H     H_    0.612774 0.932901 0.666343 0.252093
H48   H     H_    0.364791 0.009014 0.424758 0.235438
H49   H     H_    0.333110 0.996543 0.310203 0.240418
H50   H     H_    0.328328 0.065273 0.295674 0.239532
H51   H     H_    0.286384 0.030448 0.357280 0.235909
H52   H     H_    0.176663 0.786217 0.716613 0.249423
H53   H     H_    0.141860 0.734146 0.679519 0.242726
H54   H     H_    0.204370 0.724224 0.704444 0.240633
H55   H     H_    0.677833 0.377878 0.393052 0.245830
H56   H     H_    0.716127 0.415521 0.450817 0.240531
H57   H     H_    0.673152 0.807181 0.579544 0.157676
H58   H     H_    0.741525 0.368443 0.391111 0.239097
H59   H     H_    0.787973 0.256438 0.668375 0.239853
H60   H     H_    0.813390 0.317700 0.640412 0.247569
H61   H     H_    0.765239 0.315582 0.705780 0.241833
H62   H     H_    0.111844 0.861438 0.472343 0.253520
H63   H     H_    0.119676 0.815449 0.401099 0.233166
H64   H     H_    0.087172 0.797050 0.483095 0.243946
H65   H     H_    0.877166 0.788723 0.485583 0.237396
H66   H     H_    0.878214 0.739602 0.417864 0.243970
H67   H     H_    0.865503 0.804286 0.391538 0.245632
H68   H     H_    0.298043 0.124329 0.375271 0.160263
H69   H     H_    0.141932 0.205717 0.383196 0.245848
H70   H     H_    0.127833 0.220718 0.476167 0.239578
H71   H     H_    0.129569 0.270552 0.406664 0.243883
H72   H     H_    0.330326 0.359187 0.474445 0.246802
H73   H     H_    0.287321 0.381377 0.409802 0.234637
H74   H     H_    0.272476 0.377135 0.505101 0.245278
H75   H     H_    0.675967 0.647474 0.480203 0.246865
H76   H     H_    0.720069 0.627898 0.415485 0.232590
H77   H     H_    0.733580 0.629167 0.510807 0.243784
H78   H     H_    0.680916 0.283468 0.719011 0.249684
H79   H     H_    0.064730 0.457573 0.932693 0.133167
H80   H     H_    0.645005 0.232027 0.682452 0.242638
H81   H     H_    0.707966 0.221465 0.704189 0.240345
H82   H     H_    0.181355 0.875664 0.387042 0.245743
H83   H     H_    0.218190 0.914470 0.445417 0.240151
H84   H     H_    0.245024 0.866208 0.389055 0.239756
H85   H     H_    0.285201 0.759587 0.671943 0.239922
H86   H     H_    0.310319 0.821118 0.644172 0.247598
H87   H     H_    0.260644 0.818684 0.706819 0.241796
H88   H     H_    0.610158 0.361086 0.480289 0.253599
H89   H     H_    0.617171 0.316444 0.407187 0.232958
H90   H     H_    0.931481 0.540303 0.066077 0.136206
H91   H     H_    0.586265 0.296285 0.489767 0.244565
H92   H     H_    0.373293 0.282178 0.482645 0.239899
H93   H     H_    0.373936 0.234778 0.412415 0.243993
H94   H     H_    0.362282 0.300376 0.389320 0.245893
H95   H     H_    0.643769 0.709156 0.398818 0.244693
H96   H     H_    0.633081 0.724123 0.492814 0.239872
H97   H     H_    0.631674 0.773730 0.423241 0.243689
H98   H     H_    0.834314 0.865498 0.471431 0.246508
H99   H     H_    0.786762 0.886138 0.413386 0.233175
H100  H     H_    0.777956 0.881646 0.510070 0.243479
H101  H     H_    0.931776 0.541581 0.933344 0.131831
H102  H     H_    0.170994 0.143981 0.469364 0.247716
H103  H     H_    0.215911 0.123992 0.406122 0.232511
H104  H     H_    0.227835 0.124730 0.501987 0.243182
H105  H     H_    0.774499 0.418493 0.592803 0.153619
H106  H     H_    0.066124 0.458962 0.065262 0.135390
H107  H     H_    0.564811 0.957250 0.933091 0.132744
H108  H     H_    0.430653 0.038904 0.065788 0.136784
H109  H     H_    0.431137 0.039982 0.933075 0.132179
H110  H     H_    0.566076 0.958996 0.065608 0.136837
H111  H     H_    0.003843 0.592979 0.639319 0.296798
H112  H     H_    0.991946 0.668866 0.686437 0.231064
H113  H     H_    0.039892 0.659829 0.747338 0.251059
H114  H     H_    0.979424 0.632748 0.768406 0.249401
H115  H     H_    0.995480 0.401694 0.364184 0.294470
H116  H     H_    0.818345 0.303507 0.442762 0.144330
H117  H     H_    0.074126 0.373453 0.344801 0.257406
H118  H     H_    0.072359 0.393026 0.251059 0.244721
H119  H     H_    0.039002 0.335737 0.282639 0.236989
H120  H     H_    0.994662 0.407518 0.643481 0.280262
H121  H     H_    0.004598 0.331157 0.695609 0.232881
H122  H     H_    0.953326 0.340809 0.751245 0.256931
H123  H     H_    0.012855 0.366083 0.777509 0.252157
H124  H     H_    0.001830 0.596222 0.359496 0.294736
H125  H     H_    0.926490 0.628604 0.343151 0.250603
H126  H     H_    0.921768 0.599117 0.256145 0.248644
H127  H     H_    0.182154 0.667955 0.614911 0.174215
H128  H     H_    0.955773 0.659482 0.266653 0.229427
H129  H     H_    0.505321 0.092961 0.640624 0.280083
H130  H     H_    0.495773 0.169316 0.688858 0.235479
H131  H     H_    0.544297 0.158529 0.748125 0.254495
H132  H     H_    0.483472 0.133129 0.770765 0.251864
H133  H     H_    0.496374 0.901313 0.363692 0.288168
H134  H     H_    0.574996 0.873285 0.348452 0.253222
H135  H     H_    0.577998 0.899883 0.257982 0.245960
H136  H     H_    0.544856 0.839666 0.277205 0.227191
H137  H     H_    0.494544 0.907445 0.643036 0.280237
H138  H     H_    0.840036 0.703461 0.572924 0.151950
H139  H     H_    0.507842 0.832069 0.695817 0.229683
H140  H     H_    0.456252 0.839872 0.751733 0.257437
H141  H     H_    0.514967 0.867412 0.777495 0.251191
H142  H     H_    0.501466 0.096353 0.358996 0.293365
H143  H     H_    0.425258 0.127391 0.344749 0.249539
H144  H     H_    0.419813 0.097419 0.258160 0.248105
H145  H     H_    0.453035 0.158422 0.267162 0.229753
H146  H     H_    0.080424 0.598844 0.803644 0.248559
H147  H     H_    0.033513 0.605873 0.872084 0.247008
H148  H     H_    0.078712 0.556528 0.879010 0.236483
H149  H     H_    0.205966 0.384902 0.377785 0.159526
H150  H     H_    0.975795 0.370325 0.197208 0.253559
H151  H     H_    0.959803 0.406204 0.118985 0.241201
H152  H     H_    0.022455 0.389571 0.132963 0.235980
H153  H     H_    0.914249 0.404229 0.805390 0.248734
H154  H     H_    0.959047 0.394627 0.875826 0.247255
H155  H     H_    0.915773 0.445971 0.879416 0.234994
H156  H     H_    0.023031 0.629120 0.189143 0.253099
H157  H     H_    0.036484 0.593677 0.110814 0.241523
H158  H     H_    0.974332 0.610242 0.130119 0.239439
H159  H     H_    0.582719 0.096047 0.804418 0.248831
H160  H     H_    0.164278 0.296218 0.567182 0.159590
H161  H     H_    0.536210 0.104029 0.873254 0.247481
H162  H     H_    0.580180 0.053380 0.879259 0.235670
H163  H     H_    0.476941 0.870123 0.197917 0.251619
H164  H     H_    0.463659 0.904681 0.117405 0.242416
H165  H     H_    0.525844 0.888770 0.136890 0.237248
H166  H     H_    0.414657 0.903106 0.804022 0.249857
H167  H     H_    0.458638 0.894613 0.875786 0.247103
H168  H     H_    0.414761 0.945476 0.877605 0.234668
H169  H     H_    0.520377 0.129244 0.188466 0.252833
H170  H     H_    0.533531 0.094077 0.109811 0.241899
H171  H     H_    0.801374 0.631542 0.374991 0.158019
H172  H     H_    0.471300 0.109461 0.130680 0.239093
H173  H     H_    0.066720 0.675401 0.356069 0.219654
H174  H     H_    0.145709 0.642816 0.314734 0.229187
H175  H     H_    0.093515 0.609847 0.277123 0.239232
H176  H     H_    0.125555 0.579754 0.350159 0.256686
H177  H     H_    0.834022 0.502749 0.581532 0.209964
H178  H     H_    0.877379 0.496038 0.696296 0.233316
H179  H     H_    0.883157 0.427879 0.679933 0.263713
H180  H     H_    0.823768 0.454504 0.693312 0.208126
H181  H     H_    0.910246 0.305282 0.419243 0.222158
H182  H     H_    0.622723 0.229138 0.421925 0.163296
H183  H     H_    0.924873 0.343216 0.303614 0.239676
H184  H     H_    0.896972 0.402168 0.331990 0.264136
H185  H     H_    0.860657 0.343034 0.321897 0.230125
H186  H     H_    0.142250 0.536554 0.582085 0.221595
H187  H     H_    0.118144 0.545632 0.701050 0.245424
H188  H     H_    0.129103 0.614945 0.696417 0.241354
H189  H     H_    0.179318 0.571595 0.704992 0.228769
H190  H     H_    0.918827 0.675671 0.624080 0.210166
H191  H     H_    0.873557 0.638133 0.714060 0.214133
H192  H     H_    0.913949 0.585471 0.698197 0.252558
N1    N     N_R   0.000000 0.500000 0.689440 -0.194969
N2    N     N_2   0.510192 0.906204 0.312694 -0.295815
N3    N     N_2   0.478501 0.907340 0.692798 -0.287795
N4    N     N_2   0.489273 0.093519 0.307422 -0.293242
N5    N     N_2   0.082058 0.642719 0.378292 -0.305366
N6    N     N_2   0.856993 0.472741 0.592903 -0.283417
N7    N     N_2   0.905817 0.344786 0.413084 -0.316945
N8    N     N_2   0.147931 0.573131 0.602691 -0.300256
N9    N     N_2   0.907508 0.638396 0.611836 -0.294552
N10   N     N_2   0.147944 0.463885 0.401235 -0.291207
N11   N     N_2   0.092535 0.352895 0.607546 -0.306468
N12   N     N_R   1.000000 0.500000 0.310560 -0.178353
N13   N     N_2   0.857743 0.546597 0.392673 -0.267703
N14   N     N_2   0.580738 0.144119 0.379916 -0.306578
N15   N     N_2   0.354934 0.976949 0.584117 -0.289356
N16   N     N_2   0.408473 0.840714 0.420081 -0.318974
N17   N     N_2   0.648654 0.071710 0.601285 -0.300909
N18   N     N_2   0.410086 0.147031 0.603422 -0.301938
N19   N     N_2   0.640329 0.958632 0.388925 -0.264300
N20   N     N_2   0.598886 0.861603 0.615140 -0.305229
N21   N     N_2   0.357444 0.042305 0.395578 -0.266288
N22   N     N_R   0.500000 0.000000 0.689440 -0.194616
N23   N     N_R   0.500000 0.000000 0.310560 -0.171951
N24   N     N_2   0.019778 0.593125 0.688791 -0.269557
N25   N     N_2   0.008301 0.405861 0.312607 -0.289660
N26   N     N_2   0.978027 0.407588 0.692820 -0.284979
N27   N     N_2   0.990421 0.593732 0.307509 -0.291698
N28   N     N_2   0.521690 0.092616 0.689734 -0.270881
O1    O     O_R   0.050900 0.449080 0.560840 -0.634798
O2    O     O_R   0.449100 0.050920 0.439160 -0.609646
O3    O     O_R   0.449100 0.050920 0.560840 -0.610923
O4    O     O_R   0.550900 0.949080 0.439160 -0.596286
O5    O     O_R   0.449100 0.949080 0.439160 -0.627355
O6    O     O_R   0.550900 0.050920 0.560840 -0.612865
O7    O     O_R   0.550900 0.050920 0.439160 -0.606889
O8    O     O_R   0.449100 0.949080 0.560840 -0.603771
O9    O     O_R   0.949100 0.550920 0.439160 -0.617964
O10   O     O_R   0.949100 0.550920 0.560840 -0.591223
O11   O     O_R   0.050900 0.449080 0.439160 -0.601790
O12   O     O_R   0.949100 0.449080 0.439160 -0.626602
O13   O     O_R   0.050900 0.550920 0.560840 -0.612404
O14   O     O_R   0.050900 0.550920 0.439160 -0.608667
O15   O     O_R   0.949100 0.449080 0.560840 -0.601034
O16   O     O_R   0.550900 0.949080 0.560840 -0.633914
Zn1   Zn    Zn3+2 0.000000 0.500000 0.581210 0.922827
Zn2   Zn    Zn3+2 1.000000 0.500000 0.418790 0.927166
Zn3   Zn    Zn3+2 0.500000 0.000000 0.581210 0.914958
Zn4   Zn    Zn3+2 0.500000 0.000000 0.418790 0.936531

loop_
_geom_bond_atom_site_label_1
_geom_bond_atom_site_label_2
_ccdc_geom_bond_type
C13   C79   A    
H190  N9    S    
C76   C86   A    
C130  C146  A    
C29   H156  S    
C66   H97   S    
C124  C142  A    
C82   C147  S    
C23   H139  S    
C117  O3    A    
C39   H191  S    
C3    H110  S    
C4    C89   S    
C57   C59   S    
C13   C70   A    
C14   C128  S    
C40   N10   S    
C20   H128  S    
C84   O12   A    
C63   H85   S    
C96   N27   S    
C5    C88   S    
C65   H93   S    
H129  N28   S    
C11   C115  A    
C71   C83   A    
C67   H100  S    
C17   N24   S    
C97   C105  A    
O8    Zn3   S    
C100  C109  A    
C14   C121  A    
C124  N19   S    
N23   Zn4   S    
C112  N7    S    
H26   N16   S    
C22   H135  S    
C38   H189  S    
H177  N6    S    
C61   H81   S    
C25   H145  S    
C43   H20   S    
C30   H161  S    
C18   N25   S    
C144  H68   S    
C44   N15   S    
C28   C103  S    
C33   H170  S    
C31   H165  S    
C73   O10   A    
C125  N20   S    
O14   Zn2   S    
C100  N4    S    
C41   H9    S    
C23   H141  S    
C51   H49   S    
C37   H184  S    
C66   C76   S    
H21   N15   S    
H120  N26   S    
C27   H150  S    
C32   H168  S    
C30   H162  S    
C28   H153  S    
C126  N21   S    
C91   C160  A    
C127  C145  A    
C1    O1    A    
C122  N17   S    
C96   C104  A    
C106  O4    A    
C19   H123  S    
C36   N6    S    
C13   C54   S    
C46   C81   A    
C111  N6    S    
H142  N4    S    
C34   H176  S    
C31   C107  S    
C47   H33   S    
C36   H178  S    
C2    C53   S    
C17   H113  S    
C110  N5    S    
C138  C151  A    
C63   H87   S    
C119  C136  A    
C16   C124  A    
C42   H16   S    
H8    N11   S    
C128  O8    A    
C142  H46   S    
C31   H164  S    
C67   H98   S    
C18   H119  S    
C155  C156  A    
C37   N7    S    
C21   H130  S    
C38   H187  S    
O7    Zn4   S    
C55   H64   S    
C78   C87   A    
C43   H18   S    
C48   H36   S    
C26   H148  S    
C33   H172  S    
C106  O16   A    
C67   C77   S    
N12   Zn2   S    
C62   H83   S    
C69   H103  S    
C99   C108  A    
C41   H11   S    
C132  H138  S    
C3    C90   A    
C10   C118  A    
C136  H182  S    
C18   H117  S    
H111  N24   S    
C28   H155  S    
C47   H32   S    
C47   N17   S    
C95   O14   A    
O11   Zn2   S    
C16   C125  A    
C37   H185  S    
C44   H25   S    
C21   N28   S    
C46   C58   S    
C59   H73   S    
C8    C95   S    
C36   H180  S    
C35   C82   A    
C37   H183  S    
C79   C146  S    
C50   N20   S    
C19   H121  S    
C49   H41   S    
C42   H14   S    
C45   H27   S    
C54   H61   S    
C159  H108  S    
C7    C90   S    
C64   H89   S    
C29   C104  S    
C48   H38   S    
C139  O7    A    
C23   N3    S    
C119  N14   S    
C58   H70   S    
C8    C110  A    
C3    C158  A    
C12   C119  A    
C64   H88   S    
H12   N13   S    
C52   H54   S    
C98   N23   A    
C21   H132  S    
O6    Zn3   S    
C44   H23   S    
H186  N8    S    
C40   H5    S    
C55   H62   S    
C75   C87   A    
C42   N13   S    
C66   H96   S    
C114  N9    S    
C135  C147  A    
C87   C152  S    
C26   H146  S    
C30   C105  S    
C7    C107  A    
C120  N15   S    
C130  H116  S    
H30   N17   S    
C52   H52   S    
C97   N22   A    
C38   N8    S    
C158  H107  S    
C35   C56   S    
C132  C147  A    
C123  N18   S    
C93   N25   S    
C98   N2    S    
C10   C114  A    
C43   N14   S    
C68   C76   A    
C117  O2    A    
C27   C102  S    
C72   C150  A    
C68   C82   A    
C57   C75   A    
C122  C140  A    
C144  C152  A    
O10   Zn1   S    
C89   C154  A    
C125  C143  A    
C126  C144  A    
C62   C71   S    
C131  C145  A    
C27   H151  S    
C20   H125  S    
C74   C85   A    
C57   C81   A    
C19   N26   S    
C23   H140  S    
C52   C150  S    
C88   C155  A    
C65   H92   S    
C60   H77   S    
C94   N1    A    
C112  C130  A    
C70   C85   A    
C140  C149  A    
C67   H99   S    
C141  C152  A    
C61   C70   S    
C121  N16   S    
C25   N4    S    
H173  N5    S    
C22   H136  S    
C136  C149  A    
H124  N27   S    
C54   H59   S    
O5    Zn4   S    
C25   H144  S    
C43   H19   S    
C160  H109  S    
C140  H24   S    
C56   H65   S    
C61   H78   S    
C94   N26   S    
C33   H169  S    
C73   O9    A    
C10   C73   S    
C143  C153  A    
C116  C134  A    
C141  H35   S    
C39   N9    S    
C29   H158  S    
C40   H7    S    
C2    C79   A    
C111  C129  A    
H17   N14   S    
C1    C11   S    
C28   H154  S    
H181  N7    S    
C53   H55   S    
C99   N22   A    
C133  H149  S    
H133  N2    S    
C83   C151  S    
C39   H192  S    
C154  C157  A    
C134  H160  S    
C46   C78   A    
C89   C156  A    
C115  C133  A    
C35   C77   A    
C98   C107  A    
C15   C117  S    
C139  O6    A    
C157  H106  S    
C143  H57   S    
C159  C160  A    
C81   C148  S    
C65   H94   S    
C138  H13   S    
O3    Zn3   S    
C88   C157  A    
C31   H163  S    
C11   C116  A    
O4    Zn4   S    
C129  C146  A    
C8    C113  A    
C116  N11   S    
C80   C145  S    
C94   C103  A    
C97   N28   S    
C14   C120  A    
C39   H3    S    
C22   H134  S    
C38   H188  S    
C129  H105  S    
C55   H63   S    
C5    C102  A    
C20   N27   S    
C56   H67   S    
C61   H80   S    
C115  N10   S    
C93   C102  A    
C62   H84   S    
C69   H102  S    
C41   H10   S    
C96   N12   A    
H39   N19   S    
C30   H159  S    
C51   H50   S    
C118  N13   S    
C6    C105  A    
C92   N1    A    
C32   H167  S    
C47   H31   S    
C95   O13   A    
C72   C83   A    
C9    C84   S    
C156  H101  S    
C12   C122  A    
C63   C72   S    
C60   C68   S    
C64   C74   S    
C120  C137  A    
H34   N18   S    
C128  O5    A    
C118  C135  A    
C9    C111  A    
C34   H175  S    
C60   H76   S    
O16   Zn3   S    
C17   H114  S    
C100  N23   A    
C24   C55   S    
C80   C150  A    
O9    Zn2   S    
C15   C123  A    
C49   N19   S    
C86   C153  S    
C42   H15   S    
C26   C101  S    
C137  H2    S    
C6    C91   S    
C4    C103  A    
C90   C159  A    
C48   N18   S    
O12   Zn2   S    
H43   N20   S    
C41   N11   S    
C18   H118  S    
C24   C80   A    
O1    Zn1   S    
C91   C158  A    
C15   C126  A    
H137  N3    S    
C58   H71   S    
C40   H6    S    
C2    C74   A    
C16   C106  S    
C110  C127  A    
C50   H47   S    
C92   N24   S    
C5    C104  A    
C127  H1    S    
C26   H147  S    
C4    C101  A    
C123  C141  A    
C69   C78   S    
C17   H112  S    
C59   H72   S    
C51   N21   S    
C155  H90   S    
C62   H82   S    
C69   H104  S    
C29   H157  S    
C12   C139  S    
N22   Zn3   S    
C1    O11   A    
C154  H79   S    
C7    C109  A    
C121  C138  A    
C22   N2    S    
C64   H91   S    
C44   H22   S    
C133  C148  A    
C20   H126  S    
N1    Zn1   S    
C21   H131  S    
C92   C101  A    
C45   H29   S    
C77   C86   A    
C93   N12   A    
C45   N16   S    
C59   H74   S    
C33   C109  S    
C36   H179  S    
H4    N10   S    
C53   H58   S    
C63   H86   S    
O13   Zn1   S    
C49   H42   S    
H115  N25   S    
C135  H171  S    
C113  C131  A    
C27   H152  S    
C114  C132  A    
C19   H122  S    
C99   N3    S    
C84   O15   A    
C45   H28   S    
C54   H60   S    
C50   H44   S    
C53   H56   S    
C134  C148  A    
C25   H143  S    
C65   C75   S    
C56   H66   S    
C48   H37   S    
C58   H69   S    
C131  H127  S    
O15   Zn1   S    
C9    C112  A    
C60   H75   S    
O2    Zn4   S    
C52   H53   S    
C142  C153  A    
C85   C149  S    
C34   N5    S    
C50   H45   S    
C51   H51   S    
C66   H95   S    
C113  N8    S    
C32   C108  S    
C6    C108  A    
H48   N21   S    
C137  C151  A    
C32   H166  S    
C34   H174  S    
C24   C71   A    
C49   H40   S    
