data_str_m3_o24_o24_f0_nbo.sym.122
_audit_creation_date              2013-03-05T16:06:56-0500
_audit_creation_method            fapswitch 2.2
_symmetry_space_group_name_H-M    P1
_symmetry_Int_Tables_number       1
_space_group_crystal_system       triclinic
_cell_length_a                    30.190597
_cell_length_b                    21.378729
_cell_length_c                    21.368505
_cell_angle_alpha                 90.125401
_cell_angle_beta                  134.980665
_cell_angle_gamma                 89.893209
_cell_volume                      9755.69350624

loop_
_atom_site_label
_atom_site_type_symbol
_atom_site_description
_atom_site_fract_x
_atom_site_fract_y
_atom_site_fract_z
_atom_type_partial_charge
O1    O     O_R   0.093030 0.500000 0.145540 -0.633762
O2    O     O_R   0.593030 1.000000 0.145540 -0.630086
O3    O     O_R   0.093020 0.500000 0.040510 -0.626216
O4    O     O_R   0.593020 0.000000 0.040510 -0.631110
C1    C     C_R   0.121532 0.499991 0.121560 0.874035
C2    C     C_R   0.621526 0.999963 0.121491 0.874842
O5    O     O_R   0.999990 0.593020 0.052510 -0.624232
O6    O     O_R   0.999990 0.406980 0.052510 -0.613411
O7    O     O_R   0.499990 0.093020 0.052510 -0.613084
O8    O     O_R   0.499990 0.906980 0.052510 -0.624531
O9    O     O_R   0.999990 0.593020 0.947470 -0.629590
O10   O     O_R   0.999990 0.406980 0.947470 -0.635398
O11   O     O_R   0.499990 0.093020 0.947470 -0.634988
O12   O     O_R   0.499990 0.906980 0.947470 -0.628901
C3    C     C_R   0.999541 0.621420 0.999659 0.919737
C4    C     C_R   0.000185 0.378608 0.000054 0.917780
C5    C     C_R   0.500266 0.121389 0.000247 0.917569
C6    C     C_R   0.499593 0.878572 0.999598 0.920543
Zn1   Zn    Zn3+2 0.000000 0.500000 0.070130 0.941610
Zn2   Zn    Zn3+2 0.500000 1.000000 0.070130 0.944085
Zn3   Zn    Zn3+2 1.000000 0.500000 0.929870 0.935960
Zn4   Zn    Zn3+2 0.500000 1.000000 0.929870 0.935454
O13   O     O_R   0.906980 0.500000 0.959490 -0.619447
O14   O     O_R   0.406980 1.000000 0.959490 -0.620088
O15   O     O_R   0.906970 0.500000 0.854460 -0.633321
O16   O     O_R   0.406970 1.000000 0.854460 -0.633251
C7    C     C_R   0.878564 0.498924 0.878681 0.912736
C8    C     C_R   0.378561 0.001037 0.878689 0.912855
C9    C     C_3   0.058640 0.729053 0.048979 -0.233846
C10   C     C_3   0.006475 0.271364 0.945601 -0.234205
C11   C     C_3   0.501242 0.228340 0.940384 -0.234258
C12   C     C_3   0.558602 0.770774 0.048108 -0.234321
C13   C     C_3   0.020124 0.770288 0.964836 0.144259
C14   C     C_3   0.952225 0.230093 0.916187 0.143671
C15   C     C_3   0.449347 0.269707 0.918015 0.140242
C16   C     C_3   0.519615 0.729327 0.963938 0.149419
H1    H     H_    0.106940 0.711162 0.090098 0.146733
H2    H     H_    0.012247 0.289135 0.902928 0.170054
H3    H     H_    0.502685 0.210372 0.893051 0.171496
H4    H     H_    0.606835 0.788550 0.088658 0.147145
C17   C     C_3   0.998879 0.811432 0.998766 -0.090907
C18   C     C_3   0.999971 0.188695 0.998473 -0.089900
C19   C     C_3   0.499955 0.311294 0.998741 -0.090775
C20   C     C_3   0.498869 0.688545 0.998625 -0.091108
C21   C     C_3   0.036023 0.770519 0.081131 0.079142
C22   C     C_3   0.053503 0.229958 0.028220 0.071209
C23   C     C_3   0.551204 0.269911 0.021587 0.069163
C24   C     C_3   0.536498 0.729647 0.081040 0.076850
C25   C     C_3   0.978046 0.729658 0.034009 0.159323
C26   C     C_3   0.048722 0.270500 0.082542 0.170041
C27   C     C_3   0.551745 0.229615 0.081442 0.176652
C28   C     C_3   0.478652 0.770632 0.034570 0.158869
C29   C     C_3   0.940299 0.770382 0.950253 0.150089
C30   C     C_3   0.994378 0.229321 0.052293 0.164098
C31   C     C_3   0.499748 0.270969 0.058252 0.164646
C32   C     C_3   0.440426 0.729732 0.950747 0.149307
C33   C     C_3   0.962093 0.729305 0.917318 0.100757
C34   C     C_3   0.947179 0.270664 0.970235 0.099639
C35   C     C_3   0.449621 0.229470 0.977605 0.099428
C36   C     C_3   0.461713 0.770475 0.917053 0.100857
C37   C     C_3   0.999399 0.688573 0.000001 -0.110440
C38   C     C_3   0.000818 0.311496 0.000113 -0.111121
C39   C     C_3   0.500950 0.188495 0.000538 -0.110117
C40   C     C_3   0.499482 0.811404 0.999783 -0.110919
C41   C     C_3   0.228782 0.457200 0.186906 -0.212336
C42   C     C_3   0.229013 0.557409 0.213585 -0.147302
C43   C     C_3   0.729040 0.941725 0.241056 -0.192994
C44   C     C_3   0.728747 0.018679 0.171552 -0.166475
C45   C     C_3   0.270603 0.514734 0.213315 -0.206136
C46   C     C_3   0.770514 0.960516 0.225703 -0.216125
H5    H     H_    0.289265 0.526941 0.185053 0.137386
H6    H     H_    0.789022 0.928143 0.207928 0.146741
H7    H     H_    0.210420 0.422036 0.134960 0.138533
H8    H     H_    0.210687 0.604527 0.183436 0.126833
H9    H     H_    0.710799 0.894360 0.233759 0.127568
H10   H     H_    0.710561 0.034554 0.107403 0.148249
C47   C     C_3   0.310991 0.499538 0.311340 -0.003676
C48   C     C_3   0.810985 0.000550 0.310382 -0.001060
C49   C     C_3   0.269392 0.443643 0.285074 0.122028
C50   C     C_3   0.269691 0.540747 0.311059 0.124373
C51   C     C_3   0.769854 0.982600 0.324615 0.133148
C52   C     C_3   0.769292 0.057267 0.257065 0.117248
C53   C     C_3   0.228532 0.484471 0.287116 -0.233831
C54   C     C_3   0.728514 0.040620 0.273076 -0.228753
C55   C     C_3   0.188847 0.499808 0.189202 -0.022461
C56   C     C_3   0.688843 0.000221 0.188746 -0.022540
H11   H     H_    0.210817 0.472051 0.316634 0.150282
H12   H     H_    0.710504 0.073221 0.291405 0.144829
C57   C     C_3   0.770523 0.556777 0.765193 0.050554
C58   C     C_3   0.769761 0.464266 0.722931 0.069915
C59   C     C_3   0.269730 0.036680 0.723848 0.072469
C60   C     C_3   0.270571 0.943288 0.763743 0.043853
C61   C     C_3   0.729664 0.522949 0.676552 0.067501
C62   C     C_3   0.229681 0.978148 0.675975 0.064038
C63   C     C_3   0.688494 0.499448 0.688882 -0.078316
C64   C     C_3   0.188488 0.000475 0.688880 -0.078445
C65   C     C_3   0.728791 0.534388 0.778058 -0.196967
C66   C     C_3   0.728217 0.439246 0.734759 -0.198662
C67   C     C_3   0.228152 0.060524 0.736277 -0.202565
C68   C     C_3   0.228813 0.964477 0.777154 -0.183169
C69   C     C_3   0.769587 0.474643 0.824021 0.190702
C70   C     C_3   0.269545 0.024090 0.824629 0.190896
C71   C     C_3   0.811326 0.498228 0.811960 -0.049512
C72   C     C_3   0.311320 0.001691 0.812002 -0.051165
H13   H     H_    0.710742 0.563328 0.799292 0.143538
H14   H     H_    0.710132 0.390796 0.721367 0.159788
H15   H     H_    0.210012 0.108854 0.724106 0.156905
H16   H     H_    0.210804 0.934663 0.797644 0.152181
O17   O     O_R   0.947510 1.000000 0.854550 -0.622455
O18   O     O_R   0.447510 0.500000 0.854550 -0.622088
O19   O     O_R   0.052540 0.000000 0.959610 -0.633873
O20   O     O_R   0.552540 0.500000 0.959610 -0.631294
C73   C     C_R   0.999979 0.999192 0.878764 0.928080
C74   C     C_R   0.500033 0.501116 0.878828 0.927836
O21   O     O_R   0.947490 0.906970 0.947560 -0.633395
O22   O     O_R   0.947490 0.093030 0.947560 -0.626184
O23   O     O_R   0.447490 0.406970 0.947560 -0.625124
O24   O     O_R   0.447490 0.593030 0.947560 -0.633162
O25   O     O_R   0.052520 0.906980 0.052620 -0.606662
O26   O     O_R   0.052520 0.093020 0.052620 -0.628118
O27   O     O_R   0.552520 0.406980 0.052620 -0.630166
O28   O     O_R   0.552520 0.593020 0.052620 -0.605745
C75   C     C_R   0.999834 0.878586 0.000036 0.909865
C76   C     C_R   0.000015 0.121441 0.998825 0.923762
C77   C     C_R   0.500019 0.378549 0.998890 0.922383
C78   C     C_R   0.499819 0.621407 0.000010 0.910042
Zn5   Zn    Zn3+2 0.929870 1.000000 0.929930 0.930395
Zn6   Zn    Zn3+2 0.429870 0.500000 0.929930 0.931687
Zn7   Zn    Zn3+2 0.070130 1.000000 0.070230 0.949666
Zn8   Zn    Zn3+2 0.570130 0.500000 0.070230 0.948507
O29   O     O_R   0.947460 1.000000 0.040550 -0.624483
O30   O     O_R   0.447460 0.500000 0.040550 -0.624061
O31   O     O_R   0.052490 1.000000 0.145610 -0.624891
O32   O     O_R   0.552490 0.500000 0.145610 -0.627192
C79   C     C_R   0.999803 0.000125 0.121569 0.865346
C80   C     C_R   0.499839 0.499415 0.121585 0.866830
O33   O     O_R   0.499990 0.552490 0.407030 -0.626968
O34   O     O_R   0.499990 0.447510 0.407030 -0.632508
O35   O     O_R   0.999990 0.052490 0.407030 -0.625761
O36   O     O_R   0.999990 0.947510 0.407030 -0.630143
C81   C     C_R   0.500272 0.499881 0.378711 0.871467
C82   C     C_R   0.000288 0.999960 0.378748 0.876301
O37   O     O_R   0.406970 0.552510 0.407040 -0.614857
O38   O     O_R   0.406970 0.447490 0.407040 -0.621281
O39   O     O_R   0.906970 0.052510 0.407040 -0.616159
O40   O     O_R   0.906970 0.947490 0.407040 -0.636564
C83   C     C_R   0.378437 0.499916 0.378922 0.868734
C84   C     C_R   0.878434 0.000122 0.378315 0.878839
Zn9   Zn    Zn3+2 0.499990 0.570130 0.500050 0.952366
Zn10  Zn    Zn3+2 0.499990 0.429870 0.500050 0.958460
Zn11  Zn    Zn3+2 0.999990 0.070130 0.500050 0.952053
Zn12  Zn    Zn3+2 0.999990 0.929870 0.500050 0.942971
O41   O     O_R   0.500000 0.552540 0.593090 -0.625150
O42   O     O_R   0.500000 0.447460 0.593090 -0.600930
O43   O     O_R   1.000000 0.052540 0.593090 -0.620926
O44   O     O_R   1.000000 0.947460 0.593090 -0.618553
O45   O     O_R   0.593020 0.552520 0.593090 -0.631174
O46   O     O_R   0.593020 0.447480 0.593090 -0.629139
O47   O     O_R   0.093020 0.052520 0.593090 -0.633119
O48   O     O_R   0.093020 0.947480 0.593090 -0.629842
C85   C     C_R   0.500059 0.500184 0.621397 0.911172
C86   C     C_R   0.999987 0.999953 0.621319 0.921066
C87   C     C_R   0.621395 0.499924 0.621441 0.904386
C88   C     C_R   0.121393 0.000051 0.621429 0.912464
C89   C     C_3   0.008746 0.057079 0.779818 0.042688
C90   C     C_3   0.045724 0.962123 0.815977 0.072761
C91   C     C_3   0.550790 0.531640 0.821181 0.037740
C92   C     C_3   0.500670 0.442923 0.771492 0.076088
C93   C     C_3   0.551517 0.472471 0.781207 0.022862
C94   C     C_3   0.054856 0.020572 0.784615 0.020883
C95   C     C_3   0.500219 0.500973 0.688450 -0.111103
C96   C     C_3   0.000062 0.999498 0.688274 -0.109592
C97   C     C_3   0.499368 0.560177 0.728869 0.083834
C98   C     C_3   0.449383 0.471624 0.679169 0.086553
C99   C     C_3   0.953901 0.035892 0.683782 0.088155
C100  C     C_3   0.990817 0.941118 0.720122 0.084806
C101  C     C_3   0.943852 0.977277 0.714423 0.110182
C102  C     C_3   0.447785 0.531135 0.718498 0.109749
C103  C     C_3   0.999506 0.998585 0.811396 -0.103190
C104  C     C_3   0.499828 0.502144 0.811726 -0.100710
C105  C     C_3   0.025778 0.946808 0.255001 -0.200362
C106  C     C_3   0.032459 0.049522 0.261996 -0.200466
C107  C     C_3   0.546769 0.462829 0.276026 -0.204016
C108  C     C_3   0.507428 0.557999 0.236871 -0.195959
C109  C     C_3   0.554884 0.521934 0.325310 -0.142291
C110  C     C_3   0.059118 0.996148 0.329566 -0.142822
H17   H     H_    0.599852 0.540475 0.388564 0.146312
H18   H     H_    0.107663 0.992982 0.396380 0.147286
H19   H     H_    0.047339 0.903369 0.257861 0.134214
H20   H     H_    0.059519 0.089803 0.270637 0.140046
H21   H     H_    0.585153 0.433127 0.295692 0.146917
H22   H     H_    0.513653 0.606050 0.224556 0.126365
C111  C     C_3   0.500160 0.499423 0.311094 -0.013890
C112  C     C_3   0.000037 0.999962 0.311033 -0.014102
C113  C     C_3   0.492123 0.440196 0.263208 -0.174830
C114  C     C_3   0.452649 0.535570 0.224026 -0.174365
C115  C     C_3   0.966681 0.950500 0.237883 -0.179368
C116  C     C_3   0.973413 0.053470 0.244898 -0.169232
C117  C     C_3   0.940795 0.003933 0.171552 0.235680
C118  C     C_3   0.445316 0.476720 0.175881 0.239256
C119  C     C_3   0.999172 0.000166 0.188580 0.009967
C120  C     C_3   0.499366 0.498967 0.188722 0.010711
H23   H     H_    0.485523 0.392008 0.274736 0.152331
H24   H     H_    0.414055 0.564982 0.204194 0.134119
H25   H     H_    0.939567 0.910220 0.229198 0.141538
H26   H     H_    0.951665 0.096922 0.241699 0.151070
C121  C     C_3   0.042689 0.794604 0.924483 -0.900113
H27   H     H_    0.053095 0.754678 0.903286 0.240659
H28   H     H_    0.005846 0.824346 0.866357 0.232101
H29   H     H_    0.085768 0.822813 0.974267 0.265873
C122  C     C_3   0.897397 0.207531 0.821976 -0.885862
H30   H     H_    0.872652 0.248375 0.776953 0.239127
H31   H     H_    0.914853 0.177123 0.801017 0.256605
H32   H     H_    0.864292 0.180685 0.818504 0.246746
C123  C     C_3   0.391110 0.291710 0.825303 -0.880710
H33   H     H_    0.364979 0.250598 0.781149 0.238517
H34   H     H_    0.360484 0.318505 0.827050 0.246237
H35   H     H_    0.404930 0.321983 0.799296 0.257265
C124  C     C_3   0.541427 0.704393 0.922686 -0.908219
H36   H     H_    0.551575 0.744001 0.900940 0.240656
H37   H     H_    0.584460 0.675996 0.971982 0.267067
H38   H     H_    0.504224 0.674629 0.864822 0.228086
N1    N     N_3   0.706491 0.548656 0.594750 -0.481906
H39   H     H_    0.745426 0.562437 0.607469 0.176038
H40   H     H_    0.681473 0.589294 0.580515 0.188550
N2    N     N_3   0.206519 0.953727 0.593530 -0.483436
H41   H     H_    0.245455 0.940471 0.605907 0.177171
H42   H     H_    0.181483 0.912902 0.578225 0.189912
N3    N     N_3   0.794984 0.620011 0.783183 -0.464433
H43   H     H_    0.756681 0.649958 0.739629 0.184543
H44   H     H_    0.820293 0.621662 0.766651 0.197029
N4    N     N_3   0.792655 0.426328 0.693926 -0.458826
H45   H     H_    0.753502 0.408427 0.631574 0.190133
H46   H     H_    0.815080 0.456297 0.684943 0.198407
N5    N     N_3   0.292616 0.075737 0.695855 -0.458728
H47   H     H_    0.253458 0.094050 0.633882 0.190115
H48   H     H_    0.315187 0.046472 0.686312 0.198533
N6    N     N_3   0.295085 0.880213 0.780126 -0.463144
H49   H     H_    0.256801 0.850368 0.735973 0.184769
H50   H     H_    0.320239 0.879447 0.763312 0.198299
C125  C     C_3   0.791526 0.446554 0.907468 -0.887529
H51   H     H_    0.750324 0.431600 0.894163 0.232192
H52   H     H_    0.821797 0.405399 0.928289 0.253636
H53   H     H_    0.818289 0.481945 0.961218 0.252507
C126  C     C_3   0.291333 0.050831 0.908691 -0.879956
H54   H     H_    0.250042 0.064997 0.895668 0.237043
H55   H     H_    0.318225 0.014917 0.961617 0.253378
H56   H     H_    0.321431 0.092295 0.930496 0.248006
N7    N     N_3   0.607098 0.440481 0.813504 -0.450209
H57   H     H_    0.634291 0.428540 0.879487 0.179763
H58   H     H_    0.632905 0.472912 0.813413 0.173992
N8    N     N_3   0.114847 0.043281 0.821501 -0.471241
H59   H     H_    0.141523 0.056103 0.887095 0.179875
H60   H     H_    0.106191 0.084170 0.787591 0.191357
N9    N     N_3   0.017511 0.120242 0.812674 -0.461728
H61   H     H_    0.024856 0.149489 0.781601 0.194972
H62   H     H_    0.058903 0.120390 0.880094 0.190969
N10   N     N_3   0.095334 0.921190 0.888009 -0.454565
H63   H     H_    0.117800 0.902598 0.871146 0.202311
H64   H     H_    0.128174 0.949188 0.943838 0.196741
N11   N     N_3   0.605621 0.565324 0.898466 -0.448157
H65   H     H_    0.629966 0.581211 0.883495 0.187633
H66   H     H_    0.634678 0.532904 0.949660 0.193393
N12   N     N_3   0.500527 0.379170 0.795202 -0.460338
H67   H     H_    0.504226 0.349190 0.760398 0.210462
H68   H     H_    0.541247 0.373388 0.862351 0.190590
N13   N     N_3   0.499836 0.624300 0.706404 -0.431721
H69   H     H_    0.500766 0.653785 0.746344 0.189216
H70   H     H_    0.457073 0.632097 0.641274 0.196500
N14   N     N_3   0.395016 0.437872 0.601362 -0.432331
H71   H     H_    0.367896 0.425347 0.612963 0.196771
H72   H     H_    0.368441 0.469382 0.548590 0.170153
N15   N     N_3   0.904855 0.077066 0.611522 -0.441128
H73   H     H_    0.879919 0.093440 0.625410 0.195503
H74   H     H_    0.873968 0.049644 0.554465 0.196609
N16   N     N_3   0.982131 0.877504 0.688452 -0.429789
H75   H     H_    0.977681 0.848499 0.723037 0.183739
H76   H     H_    0.939210 0.876148 0.622137 0.189412
C127  C     C_3   0.880741 0.952170 0.672798 -0.913317
H77   H     H_    0.852206 0.939165 0.602872 0.234123
H78   H     H_    0.887898 0.910244 0.709645 0.242147
H79   H     H_    0.855583 0.988613 0.674862 0.258817
C128  C     C_3   0.389083 0.564929 0.681982 -0.925137
H80   H     H_    0.362404 0.582067 0.614242 0.229433
H81   H     H_    0.359200 0.532353 0.679262 0.259505
H82   H     H_    0.402357 0.605239 0.725235 0.241669
C129  C     C_3   0.872902 0.008507 0.082646 -0.910212
H83   H     H_    0.841882 0.010915 0.093280 0.231800
H84   H     H_    0.866253 0.051304 0.047440 0.248821
H85   H     H_    0.860374 0.966672 0.041951 0.249233
C130  C     C_3   0.382626 0.450868 0.091492 -0.919237
H86   H     H_    0.390282 0.409579 0.068567 0.241580
H87   H     H_    0.354449 0.436700 0.104588 0.232247
H88   H     H_    0.356739 0.487305 0.039274 0.253618
N17   N     N_3   0.076636 0.794860 0.170764 -0.439498
H89   H     H_    0.094338 0.756523 0.213007 0.185039
H90   H     H_    0.048452 0.819954 0.173782 0.169074
N18   N     N_3   0.111695 0.206757 0.059300 -0.449299
H91   H     H_    0.137686 0.245690 0.071252 0.177069
H92   H     H_    0.137078 0.185310 0.120483 0.201934
N19   N     N_3   0.606716 0.293090 0.044951 -0.452833
H93   H     H_    0.631588 0.254132 0.053735 0.181032
H94   H     H_    0.634997 0.314936 0.106624 0.202348
N20   N     N_3   0.577632 0.705539 0.170788 -0.438847
H95   H     H_    0.595386 0.743987 0.213013 0.184024
H96   H     H_    0.549864 0.680389 0.174409 0.170463
C131  C     C_3   0.954736 0.707959 0.074418 -0.885812
H97   H     H_    0.941634 0.749208 0.090111 0.228731
H98   H     H_    0.913109 0.677496 0.026697 0.257610
H99   H     H_    0.992219 0.681539 0.136185 0.245676
C132  C     C_3   0.103809 0.294401 0.175901 -0.921230
H100  H     H_    0.131406 0.254220 0.221268 0.240184
H101  H     H_    0.134144 0.324200 0.176446 0.225369
H102  H     H_    0.086349 0.322372 0.198634 0.261580
C133  C     C_3   0.610008 0.205706 0.172914 -0.933710
H103  H     H_    0.638750 0.245899 0.217620 0.242668
H104  H     H_    0.596132 0.177257 0.200149 0.259426
H105  H     H_    0.638002 0.176360 0.168323 0.225713
C134  C     C_3   0.455962 0.792562 0.075850 -0.884249
H106  H     H_    0.443165 0.751416 0.091932 0.228213
H107  H     H_    0.493670 0.819038 0.137506 0.245773
H108  H     H_    0.414262 0.823020 0.028505 0.257567
C135  C     C_3   0.873011 0.791736 0.893122 -0.862835
H109  H     H_    0.842335 0.750286 0.868397 0.247843
H110  H     H_    0.870196 0.821308 0.932964 0.243157
H111  H     H_    0.856859 0.818958 0.835882 0.242545
C136  C     C_3   0.986762 0.204588 0.110938 -0.912765
H112  H     H_    0.982742 0.244362 0.140123 0.257580
H113  H     H_    0.943968 0.175297 0.071121 0.239083
H114  H     H_    0.028142 0.175852 0.164794 0.231522
C137  C     C_3   0.498012 0.296040 0.123178 -0.913024
H115  H     H_    0.498116 0.256442 0.156757 0.257190
H116  H     H_    0.539638 0.325924 0.173334 0.236275
H117  H     H_    0.454963 0.324257 0.087086 0.233558
C138  C     C_3   0.373231 0.708522 0.894357 -0.861732
H118  H     H_    0.342633 0.750046 0.869961 0.248213
H119  H     H_    0.356689 0.681112 0.836903 0.243122
H120  H     H_    0.370805 0.679168 0.934626 0.243200
N21   N     N_3   0.921221 0.705551 0.827292 -0.461649
H121  H     H_    0.901527 0.744230 0.785191 0.180135
H122  H     H_    0.949450 0.683053 0.822443 0.200180
N22   N     N_3   0.889281 0.295052 0.939036 -0.454914
H123  H     H_    0.860415 0.256808 0.919796 0.191323
H124  H     H_    0.866980 0.321188 0.881998 0.183847
N23   N     N_3   0.394295 0.205279 0.954011 -0.451528
H125  H     H_    0.366458 0.243619 0.938398 0.189126
H126  H     H_    0.368943 0.179134 0.895975 0.181655
N24   N     N_3   0.420419 0.794033 0.826958 -0.461086
H127  H     H_    0.400641 0.755259 0.784872 0.181339
H128  H     H_    0.448353 0.816470 0.821644 0.199884
N25   N     N_3   0.292179 0.381779 0.324950 -0.439230
H129  H     H_    0.253082 0.354424 0.296545 0.173244
H130  H     H_    0.312556 0.362024 0.305429 0.191927
N26   N     N_3   0.293542 0.586443 0.379527 -0.447941
H131  H     H_    0.254914 0.606125 0.363662 0.177480
H132  H     H_    0.318927 0.562017 0.438758 0.164125
N27   N     N_3   0.794121 0.963262 0.409496 -0.493072
H133  H     H_    0.755702 0.952084 0.399235 0.184329
H134  H     H_    0.819340 0.921893 0.427877 0.181479
N28   N     N_3   0.791783 0.120024 0.265600 -0.445376
H135  H     H_    0.752477 0.147908 0.217924 0.167836
H136  H     H_    0.812722 0.137478 0.327163 0.197200

loop_
_geom_bond_atom_site_label_1
_geom_bond_atom_site_label_2
_geom_bond_distance
_ccdc_geom_bond_type
N9    H62   1.044963 S    
N27   H133  1.044880 S    
C31   C35   1.535728 S    
C116  H26   1.110522 S    
O42   C85   1.277455 A    
C130  H86   1.109054 S    
C14   C18   1.540024 S    
C42   C55   1.538806 S    
C99   C101  1.541705 S    
N19   H93   1.044930 S    
C95   C97   1.541135 S    
O24   Zn6   2.024309 S    
O28   Zn8   2.023731 S    
C54   C56   1.540619 S    
O35   C82   1.277172 A    
C112  C115  1.531972 S    
C113  H23   1.110379 S    
C64   C67   1.547017 S    
C9    C13   1.552252 S    
C10   H2    1.110226 S    
C93   N7    1.456146 S    
C115  C117  1.537014 S    
Zn9   O41   2.023975 S    
O9    C3    1.277059 A    
O17   Zn5   2.022601 S    
Zn12  O44   2.022357 S    
O8    Zn2   2.023131 S    
C121  H29   1.109508 S    
C129  H84   1.110043 S    
Zn11  O43   2.023975 S    
C114  H24   1.110410 S    
O22   C76   1.276100 A    
O36   Zn12  2.023970 S    
C96   C99   1.537504 S    
C48   C84   1.440452 S    
C65   H13   1.110235 S    
O5    C3    1.274975 A    
C91   C104  1.539218 S    
O6    C4    1.276981 A    
C126  H54   1.109816 S    
C21   N17   1.456218 S    
C23   N19   1.456941 S    
C50   C53   1.535387 S    
C47   C49   1.525239 S    
O43   C86   1.277152 A    
N6    H50   1.044843 S    
O21   C75   1.271682 A    
C135  H109  1.109674 S    
C22   N18   1.456781 S    
C138  H119  1.109583 S    
N22   H123  1.044815 S    
C25   C131  1.522546 S    
C92   C104  1.539078 S    
C9    C21   1.543521 S    
Zn1   O13   2.022308 S    
C123  H33   1.109829 S    
N3    H43   1.044800 S    
C63   C87   1.432964 S    
C48   C52   1.524987 S    
N4    H46   1.044785 S    
C3    C37   1.435656 S    
O19   C73   1.275627 A    
C62   C64   1.527283 S    
Zn7   O31   2.022599 S    
C92   C93   1.533362 S    
C73   C103  1.429540 S    
C52   C54   1.535256 S    
N14   H72   1.044682 S    
C16   C20   1.537218 S    
N18   H91   1.044960 S    
O48   C88   1.277062 A    
O39   C84   1.275288 A    
C58   C61   1.524878 S    
C105  C119  1.533898 S    
C30   C136  1.521049 S    
C54   H12   1.110525 S    
O34   C81   1.276749 A    
C63   C65   1.545620 S    
C33   C37   1.529152 S    
O25   C75   1.278656 A    
C35   C39   1.527132 S    
C66   H14   1.110304 S    
C36   C40   1.529116 S    
C5    C39   1.434769 S    
C59   C62   1.525013 S    
C6    C40   1.435987 S    
O8    C6    1.274828 A    
C25   C29   1.542568 S    
N24   H127  1.044912 S    
C118  C130  1.521138 S    
O9    Zn3   2.023129 S    
C27   C31   1.545490 S    
C127  H78   1.109899 S    
O23   Zn6   2.023983 S    
Zn5   O29   2.023569 S    
C60   C72   1.530499 S    
C138  H118  1.109670 S    
C24   C28   1.533028 S    
C118  C120  1.527590 S    
C126  H56   1.109613 S    
O31   C79   1.280180 A    
C17   C21   1.527440 S    
C106  H20   1.109854 S    
C125  H52   1.109585 S    
C19   C23   1.530991 S    
C20   C24   1.527300 S    
O18   Zn6   2.022601 S    
N8    H59   1.044806 S    
C134  H107  1.109463 S    
C49   N25   1.456479 S    
C41   C49   1.533923 S    
C106  C119  1.533723 S    
C45   C47   1.539677 S    
N25   H129  1.044906 S    
O27   Zn8   2.024062 S    
C105  C115  1.549260 S    
C19   C77   1.437842 S    
O20   C74   1.274645 A    
C91   C93   1.533585 S    
C92   C98   1.532715 S    
C60   N6    1.456282 S    
N7    H57   1.044747 S    
C12   C16   1.552259 S    
C130  H87   1.109787 S    
C106  C110  1.547736 S    
N11   H65   1.044848 S    
C109  H17   1.110229 S    
C27   C133  1.521920 S    
C42   H8    1.110256 S    
C59   N5    1.456384 S    
C108  C109  1.546943 S    
C125  H51   1.109719 S    
O38   Zn10  2.021694 S    
C50   N26   1.456176 S    
N12   H67   1.044725 S    
C101  C103  1.549525 S    
C15   C19   1.540386 S    
O18   C74   1.273295 A    
C26   C132  1.521526 S    
C1    C55   1.437553 S    
N20   H96   1.044739 S    
C61   C63   1.527294 S    
C57   C71   1.530448 S    
C128  H82   1.109804 S    
C93   C95   1.536401 S    
C58   N4    1.456407 S    
O38   C83   1.275508 A    
C16   C124  1.520574 S    
N28   H135  1.045145 S    
C47   C83   1.440360 S    
C9    C37   1.548749 S    
C68   H16   1.110263 S    
O6    Zn1   2.023131 S    
C10   C14   1.550382 S    
O26   Zn7   2.023731 S    
O10   C4    1.274420 A    
C12   C40   1.548904 S    
C123  H35   1.110045 S    
C136  H113  1.109897 S    
C28   C134  1.522623 S    
C64   C88   1.432885 S    
C135  H110  1.109725 S    
Zn11  O47   2.021869 S    
C99   N15   1.456155 S    
O27   C77   1.275840 A    
O4    Zn4   2.022308 S    
O37   Zn9   2.022024 S    
O30   C80   1.275970 A    
C111  C114  1.531492 S    
C94   N8    1.456263 S    
C81   C111  1.442515 S    
C92   N12   1.456201 S    
C17   C29   1.543545 S    
O46   C87   1.274699 A    
C19   C31   1.541572 S    
C43   C51   1.535208 S    
C131  H97   1.109723 S    
C132  H101  1.109856 S    
C89   C103  1.538862 S    
C43   H9    1.110396 S    
C14   C34   1.534029 S    
C124  H36   1.109390 S    
Zn3   O15   2.021557 S    
C13   C121  1.520419 S    
C133  H105  1.110185 S    
N21   H122  1.044747 S    
C10   C22   1.541022 S    
O14   C8    1.274182 A    
C105  C110  1.547201 S    
N1    H40   1.044853 S    
C90   C94   1.533843 S    
C44   H10   1.110392 S    
C42   C50   1.535842 S    
N2    H42   1.044879 S    
C2    C56   1.437569 S    
O11   C5    1.274164 A    
C125  H53   1.109501 S    
C44   C52   1.533928 S    
O12   Zn4   2.024750 S    
N10   H63   1.044862 S    
C124  H38   1.109572 S    
N17   H90   1.044845 S    
C112  C116  1.532814 S    
C97   C102  1.541093 S    
C64   C68   1.545573 S    
O35   Zn11  2.022349 S    
N15   H74   1.044683 S    
C57   C61   1.525285 S    
C137  H117  1.109006 S    
C85   C95   1.429468 S    
C122  H32   1.109478 S    
C86   C96   1.429176 S    
N16   H75   1.044718 S    
C69   C71   1.539651 S    
N26   H131  1.044938 S    
C128  H80   1.109585 S    
C121  H28   1.109917 S    
O47   C88   1.274675 A    
C59   C67   1.540913 S    
O23   C77   1.275705 A    
C96   C100  1.540233 S    
C34   C38   1.527500 S    
C133  H104  1.109640 S    
C53   H11   1.110215 S    
C41   H7    1.110191 S    
C115  H25   1.110512 S    
C98   N14   1.456091 S    
Zn8   O32   2.022599 S    
C26   C30   1.545404 S    
O1    C1    1.275294 A    
C90   N10   1.456048 S    
O36   C82   1.278028 A    
N22   H124  1.045228 S    
C128  H81   1.109237 S    
C15   C35   1.533422 S    
C91   N11   1.456215 S    
C105  H19   1.109809 S    
O19   Zn7   2.023571 S    
O22   Zn5   2.024309 S    
C107  C113  1.547426 S    
N5    H47   1.044921 S    
C108  H22   1.109806 S    
N23   H126  1.045394 S    
C98   C102  1.542609 S    
C91   C97   1.531594 S    
C133  H103  1.109591 S    
N27   H134  1.045175 S    
C11   C23   1.540762 S    
C12   C24   1.543491 S    
C70   C126  1.520708 S    
N18   H92   1.044820 S    
C80   C120  1.444804 S    
C110  C112  1.531653 S    
O40   C84   1.279409 A    
N19   H94   1.044954 S    
C95   C98   1.536671 S    
O1    Zn1   2.021554 S    
C25   C37   1.540318 S    
O2    Zn2   2.021554 S    
C121  H27   1.109450 S    
C27   C39   1.537398 S    
N1    H39   1.044808 S    
O4    C2    1.276597 A    
C28   C40   1.540636 S    
N17   H89   1.044878 S    
C29   C33   1.532699 S    
C23   C27   1.534141 S    
C24   N20   1.456268 S    
C108  C114  1.549502 S    
C32   C36   1.532672 S    
C89   N9    1.456324 S    
C137  H115  1.109511 S    
C20   C32   1.543170 S    
O7    Zn2   2.024747 S    
C122  H30   1.109651 S    
C21   C25   1.533260 S    
C102  C128  1.521303 S    
N13   H69   1.044206 S    
N24   H128  1.044682 S    
C129  H85   1.109969 S    
C74   C104  1.429714 S    
C32   C138  1.522552 S    
C53   C55   1.542150 S    
C126  H55   1.109537 S    
C18   C22   1.531251 S    
C11   C15   1.550238 S    
C89   C99   1.533972 S    
C110  H18   1.110319 S    
C97   N13   1.456871 S    
N8    H60   1.044855 S    
C35   N23   1.457118 S    
C47   C50   1.521898 S    
C89   C94   1.533677 S    
O33   C81   1.278858 A    
N6    H49   1.044818 S    
C43   C56   1.539107 S    
Zn10  O46   2.022198 S    
C107  C120  1.533964 S    
O16   C8    1.277432 A    
O3    C1    1.277839 A    
C138  H120  1.109632 S    
C102  C104  1.548588 S    
C33   N21   1.457184 S    
N20   H95   1.044844 S    
C66   C69   1.549214 S    
C67   H15   1.110316 S    
C13   C17   1.537307 S    
C131  H99   1.109503 S    
C123  H34   1.109587 S    
C127  H77   1.109685 S    
C136  H112  1.109499 S    
N3    H44   1.044821 S    
C18   C30   1.541137 S    
C49   C53   1.535397 S    
N13   H70   1.044756 S    
C48   C51   1.522513 S    
C94   C96   1.536804 S    
C41   C45   1.555960 S    
C34   N22   1.456821 S    
C7    C71   1.436008 S    
N4    H45   1.044913 S    
O11   Zn4   2.023129 S    
C36   N24   1.457053 S    
C58   C71   1.530819 S    
C14   C122  1.520879 S    
C62   N2    1.456339 S    
C134  H106  1.109691 S    
C67   C70   1.549237 S    
N12   H68   1.044934 S    
Zn4   O16   2.021557 S    
C9    H1    1.110273 S    
C117  C119  1.529052 S    
N14   H71   1.044764 S    
Zn9   O45   2.021869 S    
O41   C85   1.272854 A    
C132  H100  1.109495 S    
Zn12  O48   2.022198 S    
C46   C48   1.539845 S    
C44   C56   1.539555 S    
O12   C6    1.277361 A    
C106  C116  1.548287 S    
C59   C72   1.530801 S    
C114  C118  1.537429 S    
N28   H136  1.045199 S    
C63   C66   1.547072 S    
C18   C76   1.437834 S    
O34   Zn10  2.023970 S    
O37   C83   1.279158 A    
C20   C78   1.435521 S    
O29   C79   1.275428 A    
C107  C109  1.548003 S    
C42   C45   1.554016 S    
O21   Zn5   2.023983 S    
C127  H79   1.109424 S    
C45   H5    1.110200 S    
C8    C72   1.436048 S    
O5    Zn1   2.024747 S    
O25   Zn7   2.024062 S    
N21   H121  1.044921 S    
C111  C113  1.534168 S    
C116  C117  1.537002 S    
O13   C7    1.274313 A    
C69   C125  1.520653 S    
O45   C87   1.277072 A    
O17   C73   1.272195 A    
C134  H108  1.109814 S    
O44   C86   1.273041 A    
N5    H48   1.044827 S    
O33   Zn9   2.022349 S    
O2    C2    1.276424 A    
C4    C38   1.434857 S    
C100  N16   1.456961 S    
C60   C62   1.525234 S    
C82   C112  1.441618 S    
C29   C135  1.522667 S    
N7    H58   1.044940 S    
C108  C120  1.533612 S    
Zn2   O14   2.022308 S    
C130  H88   1.109650 S    
C61   N1    1.456338 S    
N11   H66   1.044510 S    
C52   N28   1.456573 S    
O32   C80   1.279378 A    
O10   Zn3   2.024750 S    
C57   C65   1.544192 S    
C131  H98   1.109860 S    
O28   C78   1.278396 A    
N10   H64   1.044702 S    
N25   H130  1.044932 S    
C124  H37   1.109585 S    
C68   C70   1.549879 S    
N15   H73   1.044887 S    
C51   N27   1.456354 S    
C70   C72   1.539834 S    
C137  H116  1.109944 S    
O39   Zn11  2.022024 S    
O40   Zn12  2.021694 S    
O7    C5    1.277197 A    
C100  C101  1.541121 S    
C122  H31   1.109976 S    
N16   H76   1.044995 S    
N2    H41   1.044809 S    
N26   H132  1.045013 S    
C129  H83   1.109937 S    
C26   C38   1.537193 S    
O3    Zn3   2.022308 S    
N9    H61   1.044752 S    
C51   C54   1.538229 S    
C60   C68   1.544243 S    
C79   C119  1.445456 S    
C113  C118  1.537228 S    
C30   C34   1.534943 S    
Zn6   O30   2.023569 S    
C13   C33   1.534598 S    
C109  C111  1.531769 S    
C16   C36   1.534803 S    
C107  H21   1.110260 S    
C136  H114  1.109157 S    
C41   C55   1.537903 S    
O15   C7    1.277289 A    
C11   C39   1.548840 S    
C117  C129  1.521538 S    
C22   C26   1.533458 S    
C90   C100  1.530861 S    
C135  H111  1.109665 S    
C31   C137  1.521244 S    
C17   C75   1.435822 S    
C10   C38   1.548694 S    
C15   C123  1.521200 S    
C11   H3    1.110391 S    
C12   H4    1.110195 S    
C101  C127  1.521678 S    
O26   C76   1.275420 A    
C44   C46   1.553319 S    
Zn10  O42   2.022357 S    
C132  H102  1.109488 S    
O20   Zn8   2.023571 S    
C46   H6    1.110370 S    
C90   C103  1.538632 S    
O24   C78   1.271788 A    
C43   C46   1.555626 S    
C57   N3    1.456303 S    
N23   H125  1.044824 S    
C58   C66   1.540898 S    
C65   C69   1.549999 S    
C28   C32   1.542467 S    
