data_str_m2_o23_o29_f0_nbo.sym.17
_audit_creation_date              2012-12-10T17:35:02-0500
_audit_creation_method            fapswitch 2.2
_symmetry_space_group_name_H-M    P1
_symmetry_Int_Tables_number       1
_space_group_crystal_system       triclinic
_cell_length_a                    45.513149
_cell_length_b                    45.051612
_cell_length_c                    35.973583
_cell_angle_alpha                 89.985164
_cell_angle_beta                  50.967978
_cell_angle_gamma                 89.985798
_cell_volume                      57297.6523778

loop_
_atom_site_label
_atom_site_type_symbol
_atom_type_description
_atom_site_fract_x
_atom_site_fract_y
_atom_site_fract_z
_atom_type_partial_charge
C1    C     C_R   0.789978 0.709860 0.499959 0.814223
C2    C     C_R   0.210203 0.709844 0.499685 0.823504
C3    C     C_R   0.289855 0.209844 0.500199 0.821236
C4    C     C_R   0.710086 0.209852 0.499901 0.819862
C5    C     C_R   0.951922 0.773173 0.127850 -0.086148
C6    C     C_R   0.036906 0.735784 0.873129 -0.087655
C7    C     C_R   0.459651 0.268285 0.127278 -0.087628
C8    C     C_R   0.534724 0.247025 0.872410 -0.088499
C9    C     C_R   0.947103 0.752482 0.102224 -0.065292
C10   C     C_R   0.045946 0.752069 0.898597 -0.065420
C11   C     C_R   0.448219 0.256064 0.101734 -0.065086
C12   C     C_R   0.547834 0.254959 0.898000 -0.064903
C13   C     C_R   0.917636 0.731372 0.127581 -0.009234
C14   C     C_R   0.080281 0.768019 0.873069 -0.007909
C15   C     C_R   0.411850 0.243421 0.127230 -0.008003
C16   C     C_R   0.586362 0.262134 0.872552 -0.009370
C17   C     C_R   0.912807 0.710973 0.102542 -0.152343
C18   C     C_R   0.089239 0.784114 0.897961 -0.152705
C19   C     C_R   0.400531 0.231225 0.102316 -0.152909
C20   C     C_R   0.599440 0.269773 0.897514 -0.152767
C21   C     C_R   0.935913 0.711738 0.053009 -0.219263
C22   C     C_R   0.064370 0.785258 0.947545 -0.219327
C23   C     C_R   0.424315 0.231874 0.052737 -0.218798
C24   C     C_R   0.574885 0.271058 0.947084 -0.218339
C25   C     C_R   0.925960 0.771800 0.178946 0.521369
C26   C     C_R   0.063476 0.736377 0.822029 0.523913
C27   C     C_R   0.433953 0.266090 0.178289 0.523804
C28   C     C_R   0.561778 0.246122 0.821355 0.524791
C29   C     C_R   0.893707 0.730650 0.177680 0.533961
C30   C     C_R   0.105570 0.767194 0.822942 0.531732
C31   C     C_R   0.387389 0.242863 0.177370 0.531097
C32   C     C_R   0.611444 0.261115 0.822424 0.532330
C33   C     C_R   0.834018 0.754813 0.280014 -0.106593
C34   C     C_R   0.133304 0.776588 0.720030 -0.110271
C35   C     C_R   0.359695 0.278438 0.280765 -0.110057
C36   C     C_R   0.639350 0.277961 0.719517 -0.112883
C37   C     C_R   0.809626 0.754272 0.329881 -0.246672
C38   C     C_R   0.159005 0.775615 0.670138 -0.263993
C39   C     C_R   0.335193 0.276993 0.330643 -0.263448
C40   C     C_R   0.664424 0.276708 0.669615 -0.260778
C41   C     C_R   0.823538 0.748970 0.354701 -0.080794
C42   C     C_R   0.175810 0.748698 0.645809 -0.053416
C43   C     C_R   0.323386 0.249495 0.354373 -0.046886
C44   C     C_R   0.676406 0.249292 0.645625 -0.047075
C45   C     C_R   0.796648 0.749599 0.407431 0.791865
C46   C     C_R   0.203076 0.749347 0.592755 0.811644
C47   C     C_R   0.296746 0.249530 0.407309 0.811124
C48   C     C_R   0.703232 0.249505 0.592692 0.811098
C49   C     C_R   0.862606 0.743079 0.329005 0.104754
C50   C     C_R   0.165691 0.722088 0.672844 0.117230
C51   C     C_R   0.337436 0.222901 0.326967 0.118127
C52   C     C_R   0.662119 0.222593 0.672779 0.118263
C53   C     C_R   0.886793 0.743535 0.278460 -0.090826
C54   C     C_R   0.140142 0.723647 0.723136 -0.139795
C55   C     C_R   0.362112 0.224817 0.276684 -0.135098
C56   C     C_R   0.636900 0.224326 0.723073 -0.137344
C57   C     C_R   0.872743 0.749616 0.253972 0.308941
C58   C     C_R   0.123803 0.750657 0.746862 0.331706
C59   C     C_R   0.373231 0.252397 0.253453 0.331496
C60   C     C_R   0.625474 0.251813 0.746477 0.339220
C61   C     C_3   0.829908 0.618571 0.529923 -0.397294
C62   C     C_3   0.170336 0.625906 0.455165 -0.397809
C63   C     C_3   0.365061 0.154571 0.530172 -0.400593
C64   C     C_3   0.631970 0.155744 0.473529 -0.400068
C65   C     C_3   0.874125 0.657531 0.517035 -0.412318
C66   C     C_3   0.113872 0.658530 0.504861 -0.412402
C67   C     C_3   0.389622 0.138750 0.449263 -0.413732
C68   C     C_3   0.611545 0.137182 0.551391 -0.413393
C69   C     C_3   0.899508 0.633974 0.515736 -0.396796
C70   C     C_3   0.088626 0.634630 0.506599 -0.397461
C71   C     C_3   0.412461 0.113003 0.448818 -0.386874
C72   C     C_3   0.588843 0.111459 0.551496 -0.386757
C73   C     C_1   0.937694 0.562387 0.499619 -0.174226
C74   C     C_1   0.062541 0.562147 0.500350 -0.173403
C75   C     C_1   0.437330 0.062151 0.499888 -0.173516
C76   C     C_1   0.562558 0.062237 0.500175 -0.174796
C77   C     C_3   0.855290 0.644705 0.496309 0.243777
C78   C     C_3   0.145948 0.643897 0.502718 0.243388
C79   C     C_3   0.352218 0.143929 0.501031 0.228827
C80   C     C_3   0.647445 0.144146 0.499222 0.228396
C81   C     C_3   0.854122 0.594574 0.530374 -0.374052
C82   C     C_3   0.145994 0.601942 0.454929 -0.372578
C83   C     C_3   0.390200 0.130877 0.529173 -0.382809
C84   C     C_3   0.607004 0.131961 0.474368 -0.382805
C85   C     C_3   0.896281 0.603882 0.497834 0.256269
C86   C     C_3   0.104521 0.603243 0.501736 0.255985
C87   C     C_3   0.394340 0.103299 0.500599 0.253475
C88   C     C_3   0.605364 0.103483 0.499652 0.253320
C89   C     C_R   0.709873 0.790141 0.500385 0.832757
C90   C     C_R   0.289936 0.790148 0.499992 0.837912
C91   C     C_R   0.210009 0.290146 0.500126 0.833527
C92   C     C_R   0.790151 0.290145 0.499567 0.832584
C93   C     C_3   0.910679 0.608229 0.445964 -0.340691
C94   C     C_3   0.103797 0.598022 0.544956 -0.341890
C95   C     C_3   0.354123 0.090860 0.525081 -0.355032
C96   C     C_3   0.646417 0.091920 0.471858 -0.354397
C97   C     C_3   0.886411 0.632216 0.443253 0.347507
C98   C     C_3   0.128923 0.621651 0.546671 0.348062
C99   C     C_3   0.328841 0.113556 0.522542 0.342623
C100  C     C_3   0.671914 0.114572 0.474005 0.341460
C101  C     C_1   0.919010 0.581079 0.498988 -0.101141
C102  C     C_1   0.081455 0.580649 0.500869 -0.100987
C103  C     C_1   0.418061 0.080669 0.500090 -0.097415
C104  C     C_1   0.581718 0.080809 0.500086 -0.097969
C105  C     C_1   0.831445 0.668131 0.498460 -0.136484
C106  C     C_1   0.169115 0.667779 0.501048 -0.135567
C107  C     C_1   0.330175 0.167801 0.500459 -0.128186
C108  C     C_1   0.669513 0.167956 0.499868 -0.127435
C109  C     C_1   0.812382 0.687214 0.499449 -0.184529
C110  C     C_1   0.187873 0.687109 0.500188 -0.183582
C111  C     C_1   0.311907 0.187114 0.500279 -0.182891
C112  C     C_1   0.687912 0.187175 0.499965 -0.183836
C113  C     C_R   0.510243 0.782519 0.974213 0.010856
C114  C     C_R   0.488706 0.783027 0.024748 0.010832
C115  C     C_R   0.009706 0.283505 0.974722 0.010857
C116  C     C_R   0.988198 0.283464 0.025271 0.010886
C117  C     C_R   0.530002 0.756478 0.948827 0.071115
C118  C     C_R   0.479477 0.755996 0.049562 0.070981
C119  C     C_R   0.021563 0.256233 0.950082 0.071164
C120  C     C_R   0.970891 0.256899 0.050787 0.071272
C121  C     C_R   0.524766 0.730111 0.973835 0.049242
C122  C     C_R   0.495771 0.729082 0.023983 0.049145
C123  C     C_R   0.007887 0.229158 0.975821 0.049048
C124  C     C_R   0.978681 0.229898 0.025925 0.049161
C125  C     C_R   0.512011 0.807041 0.948598 -0.211158
C126  C     C_R   0.476478 0.809692 0.050966 -0.210955
C127  C     C_R   0.019356 0.309885 0.948311 -0.210875
C128  C     C_R   0.984047 0.308986 0.050794 -0.211058
C129  C     C_R   0.534232 0.806924 0.898380 0.096975
C130  C     C_R   0.453416 0.810206 0.101283 0.095910
C131  C     C_R   0.042164 0.310025 0.897992 0.096434
C132  C     C_R   0.961896 0.309167 0.101029 0.097404
C133  C     C_R   0.703050 0.750682 0.592642 0.790016
C134  C     C_R   0.296854 0.750363 0.406961 0.786141
C135  C     C_R   0.203263 0.250303 0.592907 0.785216
C136  C     C_R   0.797078 0.250776 0.407310 0.789570
C137  C     C_R   0.555714 0.780920 0.872716 -0.062493
C138  C     C_R   0.442035 0.782572 0.126404 -0.063353
C139  C     C_R   0.056175 0.282346 0.873086 -0.062890
C140  C     C_R   0.942850 0.282482 0.126796 -0.062148
C141  C     C_R   0.554875 0.756579 0.898238 -0.066217
C142  C     C_R   0.453849 0.755737 0.100149 -0.065932
C143  C     C_R   0.047188 0.255892 0.899506 -0.065844
C144  C     C_R   0.945913 0.257129 0.101369 -0.066277
C145  C     C_R   0.578847 0.732049 0.873230 -0.006154
C146  C     C_R   0.439953 0.728390 0.124411 -0.005614
C147  C     C_R   0.063898 0.228855 0.875416 -0.005591
C148  C     C_R   0.924075 0.231725 0.126468 -0.005649
C149  C     C_R   0.576308 0.707167 0.898465 -0.153526
C150  C     C_R   0.453624 0.701766 0.098578 -0.153672
C151  C     C_R   0.052904 0.202348 0.901432 -0.153319
C152  C     C_R   0.928993 0.205938 0.101343 -0.153452
C153  C     C_R   0.548877 0.705796 0.947900 -0.218114
C154  C     C_R   0.481993 0.702056 0.049281 -0.217908
C155  C     C_R   0.024383 0.202340 0.950720 -0.217811
C156  C     C_R   0.956783 0.204683 0.051944 -0.218124
C157  C     C_R   0.577613 0.777689 0.822418 0.520886
C158  C     C_R   0.419642 0.780317 0.176913 0.519083
C159  C     C_R   0.078480 0.279628 0.822642 0.519437
C160  C     C_R   0.921343 0.279563 0.177097 0.521290
C161  C     C_R   0.605109 0.732944 0.823307 0.533626
C162  C     C_R   0.412164 0.728211 0.174159 0.533625
C163  C     C_R   0.091735 0.228918 0.825657 0.533943
C164  C     C_R   0.897544 0.232653 0.176369 0.533366
C165  C     C_R   0.632999 0.727266 0.723079 -0.150707
C166  C     C_R   0.379138 0.730753 0.276789 -0.151946
C167  C     C_R   0.124687 0.228649 0.723053 -0.152377
C168  C     C_R   0.869674 0.228454 0.276494 -0.152793
C169  C     C_R   0.658538 0.725337 0.673058 0.075673
C170  C     C_R   0.351952 0.728101 0.326550 0.084461
C171  C     C_R   0.151987 0.226244 0.673257 0.083735
C172  C     C_R   0.843811 0.226168 0.326472 0.076565
C173  C     C_R   0.675882 0.751786 0.645580 -0.094409
C174  C     C_R   0.324509 0.751246 0.353310 -0.124027
C175  C     C_R   0.175823 0.251133 0.646328 -0.116007
C176  C     C_R   0.824688 0.252212 0.354299 -0.096956
C177  C     C_R   0.002760 0.772189 0.025431 -0.013493
C178  C     C_R   0.987913 0.734933 0.975464 -0.013609
C179  C     C_R   0.510043 0.267446 0.024897 -0.013189
C180  C     C_R   0.484639 0.247051 0.974827 -0.013429
C181  C     C_R   0.667208 0.779408 0.669883 0.024404
C182  C     C_R   0.324612 0.775688 0.327599 0.015090
C183  C     C_R   0.172495 0.277207 0.671493 0.013415
C184  C     C_R   0.832253 0.279778 0.330188 0.024701
C185  C     C_R   0.646351 0.779383 0.719566 -0.139070
C186  C     C_R   0.348474 0.774369 0.277392 -0.122774
C187  C     C_R   0.149317 0.276227 0.721651 -0.124467
C188  C     C_R   0.853163 0.279774 0.280464 -0.141003
C189  C     C_R   0.627939 0.753786 0.746722 0.282930
C190  C     C_R   0.376739 0.752894 0.251724 0.277338
C191  C     C_R   0.124134 0.252812 0.747816 0.276427
C192  C     C_R   0.873134 0.254603 0.253007 0.281280
C193  C     C_3   0.650834 0.854060 0.453852 -0.016691
C194  C     C_3   0.371900 0.843340 0.522319 -0.020040
C195  C     C_3   0.134537 0.345642 0.469435 -0.019009
C196  C     C_3   0.850367 0.353333 0.545107 -0.016719
C197  C     C_3   0.657426 0.887385 0.506789 -0.044084
C198  C     C_3   0.327990 0.883691 0.529774 -0.044825
C199  C     C_3   0.169136 0.385867 0.480354 -0.042813
C200  C     C_3   0.841618 0.387494 0.494908 -0.043085
C201  C     C_3   0.637520 0.911347 0.497750 -0.078196
C202  C     C_3   0.351450 0.905223 0.536367 -0.085704
C203  C     C_3   0.146962 0.407976 0.472405 -0.086400
C204  C     C_3   0.861563 0.411311 0.504070 -0.079309
C205  C     C_1   0.562401 0.937900 0.500159 -0.185969
C206  C     C_1   0.437451 0.938054 0.499809 -0.185568
C207  C     C_1   0.062502 0.438031 0.500243 -0.185814
C208  C     C_1   0.937568 0.437933 0.499829 -0.185844
C209  C     C_3   0.645393 0.855218 0.502260 0.110609
C210  C     C_3   0.353348 0.855559 0.499591 0.113173
C211  C     C_3   0.146190 0.355507 0.501265 0.113778
C212  C     C_3   0.854664 0.355270 0.497524 0.111086
C213  C     C_3   0.623196 0.876389 0.456860 -0.432872
C214  C     C_3   0.399432 0.867057 0.516649 -0.433928
C215  C     C_3   0.106767 0.368884 0.474604 -0.433321
C216  C     C_3   0.878000 0.375712 0.541995 -0.432858
C217  C     C_3   0.604553 0.896779 0.501077 0.184620
C218  C     C_3   0.394639 0.897039 0.499994 0.187719
C219  C     C_3   0.105075 0.397018 0.500551 0.188065
C220  C     C_3   0.895434 0.396835 0.498835 0.184991
C221  C     C_R   0.971660 0.752623 0.051223 0.073521
C222  C     C_R   0.020944 0.752450 0.949608 0.073613
C223  C     C_R   0.472970 0.256280 0.050702 0.073121
C224  C     C_R   0.522703 0.255691 0.949032 0.073340
C225  C     C_3   0.578946 0.876601 0.546042 -0.383986
C226  C     C_3   0.408372 0.892054 0.448302 -0.385733
C227  C     C_3   0.086527 0.387553 0.552874 -0.385899
C228  C     C_3   0.920841 0.377414 0.452893 -0.384195
C229  C     C_3   0.601221 0.849852 0.546882 0.243640
C230  C     C_3   0.386683 0.865889 0.445123 0.241217
C231  C     C_3   0.108203 0.361096 0.555527 0.241014
C232  C     C_3   0.898690 0.350663 0.451819 0.243062
C233  C     C_1   0.581371 0.919370 0.500421 -0.074543
C234  C     C_1   0.418289 0.919605 0.499771 -0.073827
C235  C     C_1   0.081581 0.419575 0.500440 -0.073552
C236  C     C_1   0.918601 0.419422 0.499529 -0.074233
C237  C     C_1   0.668412 0.831818 0.501919 -0.120223
C238  C     C_1   0.330556 0.831982 0.499841 -0.113400
C239  C     C_1   0.169098 0.331977 0.500863 -0.111527
C240  C     C_1   0.831668 0.331854 0.497849 -0.118521
C241  C     C_1   0.687306 0.812757 0.501271 -0.190165
C242  C     C_1   0.312054 0.812810 0.499928 -0.190506
C243  C     C_1   0.187736 0.312810 0.500513 -0.190844
C244  C     C_1   0.812762 0.312774 0.498568 -0.189144
C245  C     C_R   0.460071 0.960125 0.499959 0.824967
C246  C     C_R   0.539886 0.960082 0.500032 0.824566
C247  C     C_R   0.960103 0.460091 0.499969 0.824658
C248  C     C_R   0.039918 0.460117 0.500047 0.824991
C249  C     C_R   0.960095 0.540074 0.499922 0.823964
C250  C     C_R   0.039950 0.540026 0.500074 0.824323
C251  C     C_R   0.460033 0.040023 0.499945 0.824437
C252  C     C_R   0.539943 0.040045 0.500061 0.823574
C253  C     C_R   0.964975 0.733045 0.026266 0.061201
C254  C     C_R   0.029283 0.770299 0.974505 0.061308
C255  C     C_R   0.460478 0.245135 0.025769 0.061191
C256  C     C_R   0.535910 0.265001 0.973986 0.061042
C257  C     C_R   0.006280 0.793429 0.051130 -0.194037
C258  C     C_R   0.978294 0.720124 0.949985 -0.194034
C259  C     C_R   0.520062 0.281349 0.050589 -0.193737
C260  C     C_R   0.471503 0.241046 0.949095 -0.193746
C261  C     C_R   0.981939 0.794407 0.101505 0.144784
C262  C     C_R   0.001815 0.719977 0.899639 0.145507
C263  C     C_R   0.495850 0.282304 0.100958 0.145851
C264  C     C_R   0.495389 0.240749 0.898729 0.144962
Cu1   Cu    Cu3+1 0.729360 0.729350 0.499990 0.935422
Cu2   Cu    Cu3+1 0.270640 0.729350 0.500010 0.920976
Cu3   Cu    Cu3+1 0.229360 0.229350 0.499990 0.925587
Cu4   Cu    Cu3+1 0.770640 0.229350 0.500010 0.926351
Cu5   Cu    Cu3+1 0.770660 0.770660 0.500000 0.936284
Cu6   Cu    Cu3+1 0.229340 0.770660 0.500000 0.934431
Cu7   Cu    Cu3+1 0.270660 0.270660 0.500000 0.938024
Cu8   Cu    Cu3+1 0.729340 0.270660 0.500000 0.942056
Cu9   Cu    Cu3+1 0.976170 0.500080 0.547790 0.948080
Cu10  Cu    Cu3+1 0.023830 0.500080 0.452210 0.946563
Cu11  Cu    Cu3+1 0.476170 0.000080 0.547790 0.946775
Cu12  Cu    Cu3+1 0.523830 0.000080 0.452210 0.948120
H1    H     H_    0.027439 0.810311 0.031691 0.158711
H2    H     H_    0.951310 0.709422 0.969640 0.158893
H3    H     H_    0.546646 0.292633 0.031190 0.158306
H4    H     H_    0.441867 0.237583 0.968458 0.158673
H5    H     H_    0.808098 0.626944 0.567022 0.169669
H6    H     H_    0.182384 0.641100 0.424211 0.171113
H7    H     H_    0.381580 0.175515 0.514391 0.177097
H8    H     H_    0.614600 0.176028 0.492032 0.177473
H9    H     H_    0.890590 0.677966 0.497972 0.159862
H10   H     H_    0.096435 0.673944 0.535660 0.160707
H11   H     H_    0.384300 0.134314 0.423588 0.157446
H12   H     H_    0.618693 0.131857 0.575012 0.157181
H13   H     H_    0.851766 0.664494 0.554844 0.181042
H14   H     H_    0.126590 0.672545 0.472490 0.181467
H15   H     H_    0.407128 0.159296 0.435871 0.183551
H16   H     H_    0.593184 0.157233 0.567540 0.183717
H17   H     H_    0.890862 0.631376 0.552203 0.175803
H18   H     H_    0.087270 0.638648 0.477174 0.174366
H19   H     H_    0.442144 0.120350 0.429811 0.174418
H20   H     H_    0.558676 0.118170 0.572748 0.174723
H21   H     H_    0.929399 0.641721 0.491808 0.164362
H22   H     H_    0.059284 0.636490 0.540942 0.165815
H23   H     H_    0.413426 0.093834 0.428581 0.163738
H24   H     H_    0.589672 0.091645 0.569282 0.163013
H25   H     H_    0.911973 0.586349 0.431203 0.164802
H26   H     H_    0.111639 0.574731 0.544282 0.164721
H27   H     H_    0.341499 0.085361 0.562473 0.168145
H28   H     H_    0.657788 0.087581 0.434621 0.168426
H29   H     H_    0.814071 0.608478 0.519092 0.174461
H30   H     H_    0.194939 0.615327 0.449422 0.173754
H31   H     H_    0.340966 0.160221 0.567721 0.158095
H32   H     H_    0.654708 0.162835 0.436194 0.157967
H33   H     H_    0.851007 0.572922 0.518375 0.159014
H34   H     H_    0.158077 0.579545 0.450512 0.159907
H35   H     H_    0.377427 0.124450 0.566466 0.166565
H36   H     H_    0.618703 0.126787 0.437059 0.166673
H37   H     H_    0.940852 0.615103 0.423765 0.152618
H38   H     H_    0.073710 0.599259 0.577882 0.153235
H39   H     H_    0.356839 0.069355 0.508002 0.153655
H40   H     H_    0.645404 0.069929 0.486658 0.151604
H41   H     H_    0.494254 0.825892 0.968154 0.133438
H42   H     H_    0.486604 0.830354 0.031825 0.133417
H43   H     H_    0.007362 0.330449 0.967310 0.133368
H44   H     H_    0.999930 0.328526 0.031150 0.133388
H45   H     H_    0.594689 0.688175 0.879950 0.181598
H46   H     H_    0.443186 0.680504 0.116532 0.181525
H47   H     H_    0.065509 0.181328 0.883613 0.181259
H48   H     H_    0.912297 0.186221 0.119940 0.181239
H49   H     H_    0.548044 0.685943 0.965383 0.141172
H50   H     H_    0.491470 0.680830 0.031341 0.141201
H51   H     H_    0.016926 0.181218 0.968843 0.141333
H52   H     H_    0.959600 0.184119 0.034514 0.141337
H53   H     H_    0.617833 0.707617 0.744012 0.163310
H54   H     H_    0.401716 0.714583 0.256897 0.163539
H55   H     H_    0.104475 0.210875 0.743086 0.164785
H56   H     H_    0.886184 0.209221 0.255445 0.164280
H57   H     H_    0.642853 0.799950 0.737559 0.157526
H58   H     H_    0.346268 0.790668 0.257269 0.152076
H59   H     H_    0.149633 0.294223 0.741197 0.154072
H60   H     H_    0.855421 0.300114 0.262767 0.160067
H61   H     H_    0.638020 0.890257 0.424000 0.180994
H62   H     H_    0.394631 0.870405 0.550751 0.180756
H63   H     H_    0.115272 0.375238 0.439132 0.181132
H64   H     H_    0.863427 0.389030 0.575362 0.181055
H65   H     H_    0.890954 0.694143 0.121212 0.184813
H66   H     H_    0.115793 0.795974 0.879137 0.184167
H67   H     H_    0.373090 0.220800 0.121117 0.184291
H68   H     H_    0.629038 0.274680 0.878755 0.184320
H69   H     H_    0.646562 0.890235 0.543743 0.174548
H70   H     H_    0.322128 0.895866 0.508748 0.174862
H71   H     H_    0.169754 0.396032 0.507483 0.174613
H72   H     H_    0.851805 0.390989 0.458369 0.174481
H73   H     H_    0.658427 0.918428 0.459709 0.132012
H74   H     H_    0.343130 0.900514 0.572267 0.134272
H75   H     H_    0.159839 0.406416 0.433960 0.133963
H76   H     H_    0.841016 0.417718 0.542483 0.132299
H77   H     H_    0.554868 0.869211 0.548025 0.178126
H78   H     H_    0.439280 0.888603 0.424531 0.180573
H79   H     H_    0.056541 0.382378 0.571160 0.180137
H80   H     H_    0.945523 0.370082 0.449631 0.178206
H81   H     H_    0.643426 0.831851 0.449188 0.164713
H82   H     H_    0.388942 0.823404 0.502917 0.163064
H83   H     H_    0.119306 0.324320 0.482362 0.163498
H84   H     H_    0.858506 0.331060 0.548450 0.165063
H85   H     H_    0.600974 0.863893 0.459180 0.166581
H86   H     H_    0.429125 0.859110 0.490114 0.166172
H87   H     H_    0.078040 0.358912 0.495104 0.166050
H88   H     H_    0.900877 0.363267 0.538277 0.166624
H89   H     H_    0.931114 0.694526 0.036551 0.137826
H90   H     H_    0.074185 0.797236 0.963807 0.137614
H91   H     H_    0.413892 0.220794 0.036549 0.137226
H92   H     H_    0.587718 0.275905 0.963351 0.137552
H93   H     H_    0.565366 0.890515 0.578313 0.147960
H94   H     H_    0.405354 0.913011 0.435040 0.146421
H95   H     H_    0.084938 0.407093 0.572612 0.146807
H96   H     H_    0.933544 0.391866 0.421352 0.148054
H97   H     H_    0.822842 0.759549 0.261527 0.149820
H98   H     H_    0.120653 0.797574 0.737901 0.149697
H99   H     H_    0.368077 0.299880 0.263261 0.145543
H100  H     H_    0.630495 0.299311 0.737307 0.142496
H101  H     H_    0.779803 0.758603 0.349290 0.151664
H102  H     H_    0.166046 0.796121 0.650392 0.162637
H103  H     H_    0.324917 0.297503 0.350890 0.156912
H104  H     H_    0.674844 0.297291 0.649564 0.155867
H105  H     H_    0.916740 0.739262 0.257308 0.152238
H106  H     H_    0.132213 0.703662 0.744296 0.137836
H107  H     H_    0.373382 0.204805 0.255204 0.137569
H108  H     H_    0.625479 0.204259 0.744411 0.132752
H109  H     H_    0.843479 0.591395 0.567704 0.170958
H110  H     H_    0.146898 0.605638 0.423626 0.171202
H111  H     H_    0.418576 0.140466 0.512532 0.171843
H112  H     H_    0.577952 0.140901 0.493371 0.171874
N1    N     N_R   0.898087 0.750683 0.202296 -0.451262
N2    N     N_R   0.096923 0.751543 0.798505 -0.450345
N3    N     N_R   0.398749 0.253908 0.201818 -0.450813
N4    N     N_R   0.598917 0.253117 0.798007 -0.452446
N5    N     N_R   0.603265 0.754923 0.798509 -0.440811
N6    N     N_R   0.403290 0.753795 0.199885 -0.441424
N7    N     N_R   0.097718 0.253791 0.799720 -0.440755
N8    N     N_R   0.897582 0.255738 0.201165 -0.440083
O1    O     O_R   0.762710 0.702420 0.499990 -0.585140
O2    O     O_R   0.237290 0.702420 0.500010 -0.588189
O3    O     O_R   0.262710 0.202420 0.499990 -0.587982
O4    O     O_R   0.737290 0.202420 0.500010 -0.586391
O5    O     O_2   0.866306 0.709853 0.201742 -0.551018
O6    O     O_2   0.138892 0.781714 0.798687 -0.555019
O7    O     O_2   0.352295 0.231419 0.201657 -0.554577
O8    O     O_2   0.648303 0.267819 0.798125 -0.551289
O9    O     O_2   0.572367 0.796261 0.797692 -0.594244
O10   O     O_2   0.415183 0.803989 0.202923 -0.590020
O11   O     O_2   0.079926 0.302048 0.796737 -0.590757
O12   O     O_2   0.925262 0.299532 0.201576 -0.595175
O13   O     O_2   0.632264 0.711930 0.799814 -0.567729
O14   O     O_2   0.394042 0.702605 0.196510 -0.569422
O15   O     O_2   0.112760 0.204278 0.803552 -0.568638
O16   O     O_2   0.871932 0.210565 0.199811 -0.569165
O17   O     O_R   0.449750 0.969940 0.540380 -0.582299
O18   O     O_R   0.550250 0.969940 0.459620 -0.581156
O19   O     O_R   0.949750 0.469940 0.540380 -0.581078
O20   O     O_R   0.050250 0.469940 0.459620 -0.582034
O21   O     O_R   0.490110 0.969920 0.459650 -0.581226
O22   O     O_R   0.509890 0.969920 0.540350 -0.581608
O23   O     O_R   0.990110 0.469920 0.459650 -0.581634
O24   O     O_R   0.009890 0.469920 0.540350 -0.581423
O25   O     O_R   0.949750 0.530220 0.540360 -0.580650
O26   O     O_R   0.050250 0.530220 0.459640 -0.581251
O27   O     O_R   0.449750 0.030220 0.540360 -0.581456
O28   O     O_R   0.550250 0.030220 0.459640 -0.581108
O29   O     O_R   0.990110 0.530200 0.459640 -0.581135
O30   O     O_R   0.009890 0.530200 0.540360 -0.580776
O31   O     O_R   0.490110 0.030200 0.459640 -0.580435
O32   O     O_R   0.509890 0.030200 0.540360 -0.580419
O33   O     O_R   0.797590 0.737310 0.499990 -0.578406
O34   O     O_R   0.202410 0.737310 0.500010 -0.573718
O35   O     O_R   0.297590 0.237310 0.499990 -0.573337
O36   O     O_R   0.702410 0.237310 0.500010 -0.572454
O37   O     O_R   0.767440 0.732550 0.430260 -0.575049
O38   O     O_R   0.232560 0.732550 0.569740 -0.586975
O39   O     O_R   0.267440 0.232550 0.430260 -0.586761
O40   O     O_R   0.732560 0.232550 0.569740 -0.587380
O41   O     O_R   0.802320 0.767440 0.430260 -0.588047
O42   O     O_R   0.197680 0.767440 0.569740 -0.582902
O43   O     O_R   0.302320 0.267440 0.430260 -0.580228
O44   O     O_R   0.697680 0.267440 0.569740 -0.581324
O45   O     O_R   0.702430 0.762700 0.500000 -0.581271
O46   O     O_R   0.297570 0.762700 0.500000 -0.579549
O47   O     O_R   0.202430 0.262700 0.500000 -0.578371
O48   O     O_R   0.797570 0.262700 0.500000 -0.579337
O49   O     O_R   0.737300 0.797590 0.500000 -0.583741
O50   O     O_R   0.262700 0.797590 0.500000 -0.584592
O51   O     O_R   0.237300 0.297590 0.500000 -0.585253
O52   O     O_R   0.762700 0.297590 0.500000 -0.587808
O53   O     O_R   0.697690 0.732570 0.569730 -0.592811
O54   O     O_R   0.302310 0.732570 0.430270 -0.592590
O55   O     O_R   0.197690 0.232570 0.569730 -0.592053
O56   O     O_R   0.802310 0.232570 0.430270 -0.593466
O57   O     O_R   0.732570 0.767460 0.569730 -0.593169
O58   O     O_R   0.267430 0.767460 0.430270 -0.599060
O59   O     O_R   0.232570 0.267460 0.569730 -0.597461
O60   O     O_R   0.767430 0.267460 0.430270 -0.593826
O61   O     O_2   0.927899 0.791399 0.205593 -0.579508
O62   O     O_2   0.056310 0.722206 0.795545 -0.578679
O63   O     O_2   0.443946 0.275295 0.204560 -0.574248
O64   O     O_2   0.551587 0.238365 0.794739 -0.575499
C265  C     C_3   0.866026 0.619805 0.423064 -0.345237
C266  C     C_3   0.864322 0.586153 0.418524 -0.895213
H113  H     H_    0.892764 0.577280 0.388938 0.252472
H114  H     H_    0.852538 0.574627 0.452490 0.249987
H115  H     H_    0.845572 0.581226 0.409467 0.246460
H116  H     H_    0.836428 0.627854 0.445049 0.187892
H117  H     H_    0.878608 0.629045 0.387372 0.217939
C267  C     C_3   0.162581 0.607606 0.543674 -0.348017
C268  C     C_3   0.172794 0.574924 0.529317 -0.898293
H118  H     H_    0.150338 0.560204 0.558436 0.253032
H119  H     H_    0.177896 0.570110 0.495502 0.251871
H120  H     H_    0.199225 0.569694 0.523617 0.244193
H121  H     H_    0.189088 0.620361 0.518500 0.187520
H122  H     H_    0.157643 0.609956 0.577828 0.213240
C269  C     C_3   0.289137 0.119764 0.573051 -0.340610
C270  C     C_3   0.270797 0.094208 0.609519 -0.872878
H123  H     H_    0.276108 0.072235 0.592647 0.263921
H124  H     H_    0.281526 0.093914 0.629983 0.239976
H125  H     H_    0.239737 0.097744 0.635657 0.243908
H126  H     H_    0.290301 0.138733 0.591522 0.178073
H127  H     H_    0.268799 0.127141 0.567536 0.199326
C271  C     C_3   0.710141 0.122508 0.422876 -0.338076
C272  C     C_3   0.728470 0.098204 0.384287 -0.871639
H128  H     H_    0.724968 0.075729 0.398913 0.262876
H129  H     H_    0.716160 0.098409 0.365693 0.239653
H130  H     H_    0.759205 0.102777 0.356938 0.245128
H131  H     H_    0.706861 0.141908 0.407037 0.177543
H132  H     H_    0.731287 0.129919 0.426947 0.198014
C273  C     C_3   0.913643 0.658193 0.409494 -0.432437
C274  C     C_3   0.943982 0.649827 0.356451 -0.860674
H133  H     H_    0.954271 0.626763 0.351971 0.257324
H134  H     H_    0.933000 0.652399 0.336489 0.245986
H135  H     H_    0.968496 0.665097 0.339598 0.244959
H136  H     H_    0.897062 0.677067 0.411310 0.205239
H137  H     H_    0.929152 0.666730 0.421706 0.199801
C275  C     C_3   0.102304 0.639327 0.595175 -0.430689
C276  C     C_3   0.085546 0.621053 0.640737 -0.854623
H138  H     H_    0.079737 0.597772 0.637143 0.255419
H139  H     H_    0.104803 0.621060 0.649752 0.243602
H140  H     H_    0.058563 0.631297 0.671487 0.248435
H141  H     H_    0.117610 0.658533 0.595163 0.207770
H142  H     H_    0.077852 0.648504 0.599124 0.201334
C277  C     C_3   0.321939 0.100953 0.487626 -0.393291
C278  C     C_3   0.295109 0.074356 0.505706 -0.854483
H143  H     H_    0.304631 0.055533 0.515641 0.248099
H144  H     H_    0.265703 0.080685 0.536381 0.263796
H145  H     H_    0.294811 0.066585 0.476648 0.238400
H146  H     H_    0.310580 0.118760 0.478434 0.196740
H147  H     H_    0.349067 0.093595 0.453568 0.195073
C279  C     C_3   0.681654 0.100927 0.505562 -0.393160
C280  C     C_3   0.709923 0.075142 0.483584 -0.854500
H148  H     H_    0.700359 0.056604 0.473256 0.244172
H149  H     H_    0.738547 0.082633 0.452341 0.263560
H150  H     H_    0.712232 0.066485 0.510567 0.237983
H151  H     H_    0.693121 0.118479 0.514969 0.196956
H152  H     H_    0.655625 0.092326 0.539731 0.194929
C281  C     C_3   0.988253 0.817869 0.126713 -0.310167
C282  C     C_3   0.021466 0.839327 0.095142 -0.916650
H153  H     H_    0.048646 0.826998 0.072105 0.255651
H154  H     H_    0.017503 0.853043 0.072930 0.256535
H155  H     H_    0.022824 0.854582 0.118272 0.256329
H156  H     H_    0.962398 0.831788 0.149464 0.241188
H157  H     H_    0.993255 0.806303 0.149566 0.238669
C283  C     C_3   0.989486 0.702920 0.874632 -0.311264
C284  C     C_3   0.951226 0.686987 0.906383 -0.916953
H158  H     H_    0.950972 0.669918 0.928877 0.255157
H159  H     H_    0.927883 0.703157 0.929148 0.257482
H160  H     H_    0.946317 0.675545 0.883379 0.255690
H161  H     H_    0.988001 0.718736 0.852152 0.240951
H162  H     H_    0.010963 0.685560 0.851528 0.238341
C285  C     C_3   0.508439 0.298573 0.126248 -0.311753
C286  C     C_3   0.545668 0.315917 0.094869 -0.913971
H163  H     H_    0.569917 0.300654 0.071038 0.254085
H164  H     H_    0.544574 0.332993 0.073481 0.258093
H165  H     H_    0.550266 0.327470 0.118099 0.256323
H166  H     H_    0.486263 0.314999 0.151431 0.234768
H167  H     H_    0.511486 0.282111 0.146621 0.243823
C287  C     C_3   0.478828 0.233938 0.873467 -0.311223
C288  C     C_3   0.436017 0.229119 0.904934 -0.915994
H168  H     H_    0.427302 0.209535 0.928580 0.254547
H169  H     H_    0.420529 0.249267 0.926510 0.257793
H170  H     H_    0.428211 0.224767 0.881749 0.256142
H171  H     H_    0.485478 0.252773 0.849317 0.239351
H172  H     H_    0.492242 0.213356 0.852028 0.240305
C289  C     C_3   0.536413 0.834758 0.872266 -0.327313
C290  C     C_3   0.518602 0.863288 0.902229 -0.421109
C291  C     C_3   0.526495 0.889848 0.870729 -0.830493
H173  H     H_    0.557422 0.893855 0.843940 0.253238
H174  H     H_    0.514769 0.885865 0.851859 0.256650
H175  H     H_    0.512937 0.909991 0.893312 0.243041
H176  H     H_    0.487422 0.860605 0.929215 0.221713
H177  H     H_    0.530489 0.868065 0.920744 0.225411
H178  H     H_    0.566812 0.839715 0.843069 0.222566
H179  H     H_    0.522347 0.829968 0.856507 0.236951
C292  C     C_3   0.439501 0.839887 0.128016 -0.326907
C293  C     C_3   0.447575 0.867807 0.098204 -0.421722
C294  C     C_3   0.428959 0.895185 0.130103 -0.829914
H180  H     H_    0.397757 0.892379 0.155930 0.253051
H181  H     H_    0.439770 0.898949 0.150099 0.256503
H182  H     H_    0.435588 0.915001 0.107653 0.243124
H183  H     H_    0.478561 0.871872 0.072225 0.222407
H184  H     H_    0.436337 0.864827 0.078530 0.224678
H185  H     H_    0.408258 0.838455 0.156046 0.222280
H186  H     H_    0.452630 0.843303 0.145295 0.237461
C295  C     C_3   0.053093 0.339504 0.870977 -0.327547
C296  C     C_3   0.042686 0.368071 0.900404 -0.420899
C297  C     C_3   0.058568 0.395458 0.868206 -0.830492
H187  H     H_    0.089937 0.394367 0.842062 0.253006
H188  H     H_    0.047182 0.397078 0.848565 0.256275
H189  H     H_    0.050278 0.415717 0.890388 0.243217
H190  H     H_    0.011420 0.370449 0.926693 0.222317
H191  H     H_    0.054432 0.367242 0.919702 0.224827
H192  H     H_    0.084348 0.339679 0.842563 0.221517
H193  H     H_    0.039382 0.340670 0.854141 0.237339
C298  C     C_3   0.957108 0.337910 0.127084 -0.327687
C299  C     C_3   0.972031 0.366589 0.097114 -0.421038
C300  C     C_3   0.961644 0.393789 0.128559 -0.829142
H194  H     H_    0.930423 0.396039 0.155497 0.253420
H195  H     H_    0.973807 0.391912 0.147246 0.256596
H196  H     H_    0.973163 0.414065 0.105964 0.243244
H197  H     H_    0.003375 0.365675 0.069973 0.221717
H198  H     H_    0.959630 0.369255 0.078782 0.225579
H199  H     H_    0.926336 0.341272 0.156462 0.222169
H200  H     H_    0.971697 0.335280 0.142624 0.236871
C301  C     C_3   0.666969 0.694466 0.651263 -0.381623
C302  C     C_3   0.707188 0.683874 0.628746 -0.334605
C303  C     C_3   0.712570 0.678976 0.666155 -0.769443
H201  H     H_    0.709429 0.700234 0.683972 0.274707
H202  H     H_    0.691543 0.662734 0.693517 0.254413
H203  H     H_    0.741406 0.670138 0.648431 0.220083
H204  H     H_    0.712505 0.662531 0.609928 0.202181
H205  H     H_    0.728650 0.699971 0.601769 0.214830
H206  H     H_    0.646719 0.677893 0.678782 0.180910
H207  H     H_    0.662173 0.693659 0.624680 0.192803
C304  C     C_3   0.353261 0.699521 0.348151 -0.365397
C305  C     C_3   0.319508 0.678966 0.366764 -0.330234
C306  C     C_3   0.320817 0.666572 0.326196 -0.776315
H208  H     H_    0.318279 0.684783 0.307554 0.274280
H209  H     H_    0.347715 0.654409 0.300014 0.257269
H210  H     H_    0.296876 0.650968 0.341118 0.221664
H211  H     H_    0.320211 0.660076 0.386067 0.199324
H212  H     H_    0.292214 0.690682 0.392503 0.223919
H213  H     H_    0.379503 0.686749 0.321271 0.176139
H214  H     H_    0.355622 0.704315 0.376367 0.189849
C307  C     C_3   0.155046 0.196211 0.651555 -0.365963
C308  C     C_3   0.192122 0.179917 0.631407 -0.337967
C309  C     C_3   0.194060 0.170846 0.670759 -0.779381
H215  H     H_    0.194133 0.190775 0.688862 0.273434
H216  H     H_    0.169583 0.156549 0.697606 0.258600
H217  H     H_    0.220496 0.158199 0.654809 0.223682
H218  H     H_    0.193940 0.159550 0.612623 0.199269
H219  H     H_    0.217105 0.193812 0.604828 0.217834
H220  H     H_    0.131277 0.181418 0.678714 0.178062
H221  H     H_    0.151492 0.198543 0.623948 0.190628
C310  C     C_3   0.836782 0.195236 0.347664 -0.374351
C311  C     C_3   0.797595 0.183067 0.368263 -0.344664
C312  C     C_3   0.794033 0.177674 0.329297 -0.767147
H222  H     H_    0.796683 0.198874 0.311652 0.276380
H223  H     H_    0.816218 0.161989 0.302028 0.256320
H224  H     H_    0.765921 0.167964 0.345452 0.221766
H225  H     H_    0.793129 0.161649 0.386511 0.198219
H226  H     H_    0.774848 0.198420 0.395377 0.214329
H227  H     H_    0.858351 0.179282 0.320090 0.179731
H228  H     H_    0.840699 0.194924 0.375074 0.192202
C313  C     C_3   0.677378 0.809606 0.645495 -0.400729
C314  C     C_3   0.641665 0.827293 0.663813 -0.340633
C315  C     C_3   0.651601 0.856268 0.636178 -0.888359
H229  H     H_    0.670633 0.869948 0.638611 0.261758
H230  H     H_    0.665704 0.851492 0.598026 0.252742
H231  H     H_    0.625406 0.869101 0.651477 0.250096
H232  H     H_    0.623639 0.813704 0.659438 0.223812
H233  H     H_    0.625156 0.832637 0.702377 0.244140
H234  H     H_    0.694425 0.822211 0.652529 0.196433
H235  H     H_    0.694233 0.808040 0.606348 0.229111
C316  C     C_3   0.300427 0.803416 0.353225 -0.357479
C317  C     C_3   0.310978 0.831054 0.321820 -0.380462
C318  C     C_3   0.289182 0.858349 0.352399 -0.853268
H236  H     H_    0.258249 0.854579 0.374396 0.255905
H237  H     H_    0.296100 0.863348 0.376351 0.249531
H238  H     H_    0.297089 0.877817 0.328833 0.246485
H239  H     H_    0.341768 0.835644 0.299964 0.249740
H240  H     H_    0.303913 0.827352 0.297707 0.216588
H241  H     H_    0.270347 0.797923 0.371445 0.215848
H242  H     H_    0.303576 0.809931 0.380372 0.215782
C319  C     C_3   0.192595 0.306140 0.645191 -0.358832
C320  C     C_3   0.176389 0.334600 0.675683 -0.375875
C321  C     C_3   0.193731 0.362310 0.644313 -0.861813
H243  H     H_    0.224877 0.362398 0.623570 0.258088
H244  H     H_    0.187388 0.363122 0.619133 0.251172
H245  H     H_    0.181662 0.382432 0.667234 0.247397
H246  H     H_    0.145215 0.335350 0.696501 0.248053
H247  H     H_    0.182811 0.335070 0.700796 0.217622
H248  H     H_    0.222971 0.304312 0.628596 0.214325
H249  H     H_    0.190176 0.309116 0.616519 0.211901
C322  C     C_3   0.821040 0.309975 0.354736 -0.400134
C323  C     C_3   0.856161 0.328548 0.336382 -0.342523
C324  C     C_3   0.845348 0.357441 0.364457 -0.885463
H250  H     H_    0.825821 0.370621 0.362334 0.261839
H251  H     H_    0.831493 0.352573 0.402516 0.252161
H252  H     H_    0.871140 0.370819 0.349272 0.250078
H253  H     H_    0.874824 0.315512 0.340278 0.223672
H254  H     H_    0.872262 0.334052 0.297942 0.245375
H255  H     H_    0.803485 0.321924 0.347897 0.196131
H256  H     H_    0.804399 0.308429 0.393835 0.230465
C325  C     C_3   0.692168 0.858292 0.407110 -0.394201
C326  C     C_3   0.697743 0.847870 0.362507 -0.864316
H257  H     H_    0.691145 0.823849 0.365246 0.249755
H258  H     H_    0.679521 0.860547 0.357578 0.253217
H259  H     H_    0.727692 0.851297 0.330387 0.248780
H260  H     H_    0.700739 0.881918 0.401915 0.207994
H261  H     H_    0.711787 0.844939 0.408798 0.211738
C327  C     C_3   0.343364 0.832100 0.574796 -0.390936
C328  C     C_3   0.362138 0.812878 0.589753 -0.860217
H262  H     H_    0.375487 0.793018 0.566364 0.249681
H263  H     H_    0.383901 0.825536 0.587952 0.250697
H264  H     H_    0.340366 0.805238 0.627190 0.250186
H265  H     H_    0.329079 0.850943 0.600171 0.208677
H266  H     H_    0.321585 0.817948 0.578771 0.213812
C329  C     C_3   0.168125 0.338955 0.416043 -0.394923
C330  C     C_3   0.156026 0.321523 0.391099 -0.857305
H267  H     H_    0.143382 0.299898 0.409272 0.250750
H268  H     H_    0.135269 0.334185 0.390814 0.250641
H269  H     H_    0.181200 0.317073 0.353442 0.249862
H270  H     H_    0.181946 0.359765 0.395729 0.207873
H271  H     H_    0.189405 0.325010 0.413555 0.212593
C331  C     C_3   0.809308 0.356796 0.592720 -0.398643
C332  C     C_3   0.804984 0.345765 0.636228 -0.850230
H272  H     H_    0.812262 0.321825 0.632307 0.252406
H273  H     H_    0.823335 0.358475 0.640891 0.250799
H274  H     H_    0.775162 0.348603 0.669006 0.251547
H275  H     H_    0.800147 0.380314 0.599062 0.207532
H276  H     H_    0.789572 0.343383 0.591338 0.212485
C333  C     C_3   0.701117 0.893039 0.475743 -0.408131
C334  C     C_3   0.712765 0.902383 0.505734 -0.863287
H277  H     H_    0.697505 0.922786 0.526487 0.248539
H278  H     H_    0.706525 0.884301 0.530729 0.257858
H279  H     H_    0.743628 0.906928 0.481860 0.249806
H280  H     H_    0.717903 0.873039 0.455657 0.224425
H281  H     H_    0.710962 0.910667 0.448620 0.195869
C335  C     C_3   0.287757 0.876859 0.578198 -0.410690
C336  C     C_3   0.255747 0.887741 0.578494 -0.862660
H282  H     H_    0.257499 0.912170 0.573320 0.247927
H283  H     H_    0.257502 0.876705 0.549531 0.260136
H284  H     H_    0.228000 0.882289 0.613362 0.250526
H285  H     H_    0.283078 0.852831 0.586015 0.222152
H286  H     H_    0.283729 0.887420 0.609019 0.199308
C337  C     C_3   0.211948 0.383137 0.435217 -0.414085
C338  C     C_3   0.238552 0.392594 0.445425 -0.862867
H287  H     H_    0.233634 0.416218 0.456738 0.247706
H288  H     H_    0.233869 0.378485 0.474074 0.261780
H289  H     H_    0.268394 0.390029 0.412560 0.248759
H290  H     H_    0.219866 0.360158 0.421558 0.220510
H291  H     H_    0.218759 0.397038 0.405179 0.197985
C339  C     C_3   0.797747 0.392611 0.527147 -0.409819
C340  C     C_3   0.784988 0.401847 0.498329 -0.864071
H292  H     H_    0.799488 0.422543 0.477985 0.249036
H293  H     H_    0.791340 0.383932 0.473044 0.257834
H294  H     H_    0.753995 0.405854 0.522960 0.248942
H295  H     H_    0.781529 0.372406 0.547146 0.222948
H296  H     H_    0.788039 0.410105 0.554412 0.195954
C341  C     C_3   0.629135 0.941123 0.524876 -0.408764
C342  C     C_3   0.595922 0.941120 0.578815 -0.334569
C343  C     C_3   0.594506 0.970129 0.601814 -0.856737
H297  H     H_    0.620689 0.972895 0.597672 0.250655
H298  H     H_    0.591440 0.989297 0.585048 0.254234
H299  H     H_    0.569889 0.969813 0.640595 0.243083
H300  H     H_    0.568858 0.939038 0.584991 0.226155
H301  H     H_    0.598597 0.922641 0.596771 0.206227
H302  H     H_    0.655232 0.948037 0.518939 0.208998
H303  H     H_    0.623748 0.958641 0.508015 0.196369
C344  C     C_3   0.340307 0.938548 0.541018 -0.408788
C345  C     C_3   0.354668 0.954630 0.494684 -0.328618
C346  C     C_3   0.337934 0.985817 0.505310 -0.874283
H304  H     H_    0.306625 0.984700 0.528046 0.253327
H305  H     H_    0.345763 0.999128 0.523906 0.252696
H306  H     H_    0.349132 0.997129 0.471261 0.242564
H307  H     H_    0.385874 0.956963 0.471100 0.223527
H308  H     H_    0.346701 0.942262 0.475636 0.205977
H309  H     H_    0.308939 0.940127 0.566903 0.209717
H310  H     H_    0.350753 0.950868 0.557453 0.201368
C347  C     C_3   0.153373 0.441296 0.477204 -0.410761
C348  C     C_3   0.132391 0.453216 0.528182 -0.332187
C349  C     C_3   0.144818 0.484884 0.527259 -0.864339
H311  H     H_    0.175508 0.485476 0.509394 0.253981
H312  H     H_    0.139036 0.499822 0.507947 0.253068
H313  H     H_    0.128887 0.493155 0.564455 0.240997
H314  H     H_    0.101525 0.453743 0.547284 0.224562
H315  H     H_    0.138127 0.439164 0.548220 0.205907
H316  H     H_    0.184242 0.444861 0.456488 0.209233
H317  H     H_    0.145083 0.455073 0.459462 0.200066
C350  C     C_3   0.868735 0.441535 0.478484 -0.409190
C351  C     C_3   0.901337 0.442503 0.424356 -0.335423
C352  C     C_3   0.901597 0.471913 0.403060 -0.854823
H318  H     H_    0.874991 0.474598 0.408172 0.251439
H319  H     H_    0.904643 0.490780 0.420294 0.253933
H320  H     H_    0.925787 0.472295 0.364103 0.243054
H321  H     H_    0.928776 0.440542 0.417252 0.226161
H322  H     H_    0.898654 0.424342 0.405965 0.206289
H323  H     H_    0.842146 0.448250 0.485508 0.209244
H324  H     H_    0.874131 0.458793 0.495657 0.196830
C353  C     C_3   0.588527 0.817593 0.543260 -0.324568
C354  C     C_3   0.549569 0.814377 0.556031 -0.893834
H325  H     H_    0.527065 0.825204 0.590558 0.248272
H326  H     H_    0.550067 0.823704 0.527063 0.245473
H327  H     H_    0.542407 0.790452 0.559293 0.244894
H328  H     H_    0.608760 0.806725 0.508387 0.175995
H329  H     H_    0.589432 0.801794 0.566255 0.194201
C355  C     C_3   0.412656 0.838159 0.413668 -0.328607
C356  C     C_3   0.455328 0.843371 0.375428 -0.886314
H330  H     H_    0.461698 0.863553 0.353937 0.248811
H331  H     H_    0.468885 0.845015 0.392398 0.244405
H332  H     H_    0.468239 0.824103 0.350652 0.245829
H333  H     H_    0.409789 0.818980 0.434542 0.174903
H334  H     H_    0.402308 0.828269 0.395495 0.193752
C357  C     C_3   0.084476 0.331017 0.577754 -0.327661
C358  C     C_3   0.041201 0.333069 0.610450 -0.887873
H335  H     H_    0.029975 0.351072 0.637214 0.248774
H336  H     H_    0.031828 0.336485 0.588764 0.244690
H337  H     H_    0.028726 0.311806 0.630082 0.245519
H338  H     H_    0.092528 0.313783 0.551290 0.175385
H339  H     H_    0.091900 0.319585 0.598236 0.194080
C359  C     C_3   0.912414 0.318365 0.453500 -0.324852
C360  C     C_3   0.951853 0.315385 0.439385 -0.893069
H340  H     H_    0.973726 0.326752 0.405111 0.248256
H341  H     H_    0.951834 0.324270 0.468189 0.245560
H342  H     H_    0.959572 0.291524 0.434952 0.244905
H343  H     H_    0.892863 0.306915 0.487992 0.176471
H344  H     H_    0.911299 0.302948 0.430300 0.193927
C361  C     C_3   0.593111 0.850494 0.596748 -0.420580
C362  C     C_3   0.551862 0.843363 0.640911 -0.345174
C363  C     C_3   0.544984 0.849447 0.687607 -0.852841
H345  H     H_    0.563587 0.835254 0.690114 0.263280
H346  H     H_    0.550427 0.873162 0.689811 0.249148
H347  H     H_    0.515106 0.844312 0.718427 0.246687
H348  H     H_    0.531692 0.857087 0.640758 0.218178
H349  H     H_    0.545273 0.819639 0.641068 0.229993
H350  H     H_    0.612007 0.834534 0.596172 0.201234
H351  H     H_    0.598888 0.872492 0.604160 0.178420
C364  C     C_3   0.370216 0.878234 0.420129 -0.415624
C365  C     C_3   0.399760 0.885590 0.366309 -0.342682
C366  C     C_3   0.381192 0.900169 0.347371 -0.858094
H352  H     H_    0.359553 0.885158 0.352457 0.258555
H353  H     H_    0.367624 0.921461 0.366226 0.250190
H354  H     H_    0.402975 0.904820 0.308551 0.247383
H355  H     H_    0.421453 0.901025 0.360160 0.217166
H356  H     H_    0.414031 0.865167 0.344976 0.236425
H357  H     H_    0.349891 0.862013 0.424398 0.196759
H358  H     H_    0.354557 0.899119 0.436628 0.176183
C367  C     C_3   0.117559 0.370851 0.589538 -0.416970
C368  C     C_3   0.083154 0.373720 0.643213 -0.342566
C369  C     C_3   0.094785 0.386293 0.671688 -0.857071
H359  H     H_    0.115771 0.371467 0.668473 0.263867
H360  H     H_    0.107190 0.408796 0.658531 0.250231
H361  H     H_    0.069569 0.387959 0.710064 0.248053
H362  H     H_    0.061594 0.388700 0.648079 0.217219
H363  H     H_    0.069992 0.351763 0.658855 0.235823
H364  H     H_    0.137712 0.354866 0.586191 0.195251
H365  H     H_    0.131218 0.392804 0.579659 0.176186
C370  C     C_3   0.905702 0.352119 0.402665 -0.420405
C371  C     C_3   0.946819 0.345727 0.357489 -0.345278
C372  C     C_3   0.952639 0.352681 0.311692 -0.852352
H366  H     H_    0.933987 0.338556 0.309209 0.263129
H367  H     H_    0.946516 0.376431 0.310840 0.249225
H368  H     H_    0.982465 0.348102 0.280137 0.246977
H369  H     H_    0.967078 0.359395 0.357523 0.218378
H370  H     H_    0.954005 0.322001 0.356017 0.229821
H371  H     H_    0.886786 0.336158 0.403292 0.200604
H372  H     H_    0.899171 0.374227 0.396535 0.178541
C373  C     C_3   0.877191 0.735878 0.356270 -0.377889
C374  C     C_3   0.918355 0.725581 0.325876 -0.869675
H373  H     H_    0.922822 0.705516 0.304921 0.253530
H374  H     H_    0.937803 0.743607 0.301539 0.259048
H375  H     H_    0.925195 0.719822 0.349677 0.249838
H376  H     H_    0.874056 0.755853 0.376589 0.226069
H377  H     H_    0.859380 0.717935 0.382476 0.189131
C375  C     C_3   0.179613 0.691644 0.650021 -0.396769
C376  C     C_3   0.161157 0.681684 0.628409 -0.805312
H378  H     H_    0.130012 0.680093 0.656804 0.257989
H379  H     H_    0.167349 0.697476 0.600657 0.240640
H380  H     H_    0.172154 0.659498 0.611644 0.229673
H381  H     H_    0.210841 0.691198 0.622776 0.223416
H382  H     H_    0.172603 0.674804 0.677136 0.190276
C377  C     C_3   0.328354 0.192416 0.349654 -0.406898
C378  C     C_3   0.349075 0.186796 0.369736 -0.812286
H383  H     H_    0.380142 0.187614 0.340480 0.251509
H384  H     H_    0.341267 0.203593 0.397116 0.242772
H385  H     H_    0.341484 0.164493 0.386621 0.233817
H386  H     H_    0.297453 0.189603 0.378020 0.226056
H387  H     H_    0.337086 0.174834 0.322775 0.196972
C379  C     C_3   0.671359 0.192207 0.649790 -0.412041
C380  C     C_3   0.650735 0.186746 0.629549 -0.798434
H388  H     H_    0.619656 0.187327 0.658799 0.256306
H389  H     H_    0.658368 0.203781 0.602537 0.240709
H390  H     H_    0.658578 0.164585 0.612196 0.231317
H391  H     H_    0.702276 0.189463 0.621467 0.224221
H392  H     H_    0.662634 0.174516 0.676524 0.194347

loop_
_geom_bond_atom_site_label_1
_geom_bond_atom_site_label_2
_ccdc_geom_bond_type
C360  H342  S    
C297  H187  S    
Cu10  O26   S    
C55   C59   A    
C119  C143  A    
C301  C302  S    
C142  C146  A    
C83   C87   S    
C285  C286  S    
C120  C144  A    
C228  C232  S    
C260  C264  A    
C270  H124  S    
C328  H262  S    
C336  H282  S    
C178  C253  A    
C333  C334  S    
C52   C379  S    
C340  H293  S    
C45   O41   A    
C305  H212  S    
C257  C261  A    
C210  C238  S    
C79   C99   S    
C55   H107  S    
C281  H157  S    
C259  C263  A    
Cu2   O54   S    
C212  C232  S    
C266  H114  S    
C294  H182  S    
C99   C277  S    
C271  H131  S    
Cu4   O48   S    
C67   H15   S    
C48   O40   A    
C215  H87   S    
C65   H9    S    
Cu2   O2    S    
C149  C153  A    
C334  H277  S    
C64   C84   S    
C178  C258  A    
Cu6   O42   S    
C146  C150  A    
C89   O45   A    
C313  H235  S    
C152  C156  A    
C197  C333  S    
C283  H161  S    
C21   H89   S    
C348  H315  S    
C196  C331  S    
C365  H356  S    
C8    C264  A    
C159  O11   S    
C208  C236  T    
C230  C355  S    
C326  H258  S    
C160  O12   S    
C141  C145  A    
Cu8   O36   S    
C354  H327  S    
C194  C327  S    
C72   C88   S    
C203  H75   S    
C353  H328  S    
C355  H333  S    
C275  H142  S    
C94   H26   S    
C177  C221  A    
C59   N3    S    
C311  C312  S    
C324  H251  S    
C324  H250  S    
C332  H274  S    
C222  C254  A    
C165  C169  A    
C36   H100  S    
C118  C142  A    
C226  H94   S    
Cu5   O57   S    
C65   C77   S    
C100  C271  S    
C84   C88   S    
C323  H254  S    
C357  C358  S    
C206  C245  S    
C94   H38   S    
C305  C306  S    
C164  O16   S    
C326  H259  S    
C217  C233  S    
C203  C347  S    
C126  C130  A    
C323  C324  S    
C167  C171  A    
C268  H118  S    
C184  C322  S    
C17   C21   A    
Cu4   O4    S    
C310  H228  S    
C334  H279  S    
C61   H5    S    
C186  C190  A    
C19   C23   A    
C369  H359  S    
C33   H97   S    
C92   C244  S    
C219  C235  S    
C276  H140  S    
Cu6   O58   S    
C35   H99   S    
C364  C365  S    
C279  H152  S    
C16   C20   A    
C315  H231  S    
C309  H216  S    
C27   O63   S    
C317  H240  S    
C139  C143  A    
C349  H312  S    
C71   H19   S    
C269  H127  S    
C61   H29   S    
C54   H106  S    
C189  N5    S    
C214  H86   S    
C211  C231  S    
C87   C103  S    
C23   C255  A    
C322  H256  S    
C26   O62   S    
C298  H199  S    
C143  C147  A    
C302  H204  S    
C262  C283  S    
C318  H236  S    
C8    C28   A    
C98   C275  S    
C274  H133  S    
C169  C301  S    
C76   C252  S    
C301  H207  S    
C320  H246  S    
C328  H264  S    
C39   H103  S    
C278  H143  S    
C224  C256  A    
C175  C183  A    
C170  C174  A    
Cu10  O29   S    
C293  H184  S    
C176  C184  A    
C231  C357  S    
Cu1   O1    S    
C134  C174  S    
C374  H375  S    
C316  H241  S    
C377  H387  S    
C168  H56   S    
C338  H287  S    
C22   H90   S    
C307  H221  S    
C193  C213  S    
C282  H153  S    
C158  N6    A    
C119  C123  A    
C167  C191  A    
C312  H222  S    
C285  H167  S    
C319  H248  S    
C168  C192  A    
Cu7   O35   S    
C78   C106  S    
C97   C265  S    
C299  C300  S    
C20   C24   A    
C162  O14   S    
C341  H302  S    
C292  C293  S    
Cu9   O25   S    
C311  H226  S    
C292  H185  S    
C66   C70   S    
C145  C161  A    
C49   C53   A    
Cu12  O21   S    
C180  C224  A    
C51   C55   A    
C363  H346  S    
C64   H32   S    
C71   H23   S    
C153  H49   S    
C10   C222  A    
C196  C212  S    
C125  C129  A    
C272  H130  S    
C129  C137  A    
C286  H163  S    
C31   N3    A    
C166  H54   S    
C297  H189  S    
C34   C58   A    
C95   H27   S    
C188  H60   S    
C239  C243  T    
C226  H78   S    
C347  H317  S    
C98   C267  S    
C218  C226  S    
C314  H233  S    
C44   C48   S    
C250  O30   A    
C227  C231  S    
C136  C176  S    
C287  H172  S    
C307  C308  S    
C336  H284  S    
C41   C45   S    
C231  C367  S    
C259  H3    S    
C309  H215  S    
C240  C244  T    
C57   N1    S    
C174  C182  A    
C282  H155  S    
C309  H217  S    
C207  C235  T    
C123  C124  A    
C295  C296  S    
C204  H76   S    
Cu5   O33   S    
C81   H109  S    
C38   H102  S    
C267  H122  S    
Cu3   O47   S    
C289  H179  S    
C35   C59   A    
C56   C60   A    
C209  C237  S    
Cu1   O45   S    
C181  C185  A    
C90   O50   A    
C114  C126  A    
C379  H392  S    
C319  C320  S    
C343  H299  S    
C375  H382  S    
C315  H229  S    
C346  H305  S    
C157  N5    A    
C364  H358  S    
C356  H330  S    
C118  C122  A    
C181  C313  S    
C247  O23   A    
C325  H260  S    
C24   C256  A    
C373  H377  S    
C166  C190  A    
C91   O47   A    
Cu8   O52   S    
C245  O21   A    
C295  H192  S    
C177  C257  A    
C214  H62   S    
C61   C77   S    
C358  H335  S    
C93   H37   S    
C198  C202  S    
C318  H238  S    
C133  O57   A    
C300  H194  S    
C77   C97   S    
C32   O8    S    
C299  H198  S    
C344  H310  S    
C278  H145  S    
C193  H81   S    
C44   C52   A    
C280  H150  S    
C335  H286  S    
Cu12  O18   S    
C361  C362  S    
C2    O34   A    
C288  H170  S    
Cu4   O56   S    
C258  C262  A    
C11   C15   A    
C338  H289  S    
C20   H68   S    
C367  H364  S    
C88   C104  S    
C180  C255  A    
C366  H352  S    
C73   C249  S    
C296  H190  S    
C372  H367  S    
C70   H22   S    
C200  H72   S    
C312  H224  S    
C221  C253  A    
C245  O17   A    
C135  O55   A    
Cu11  O17   S    
C357  H339  S    
C12   C16   A    
C66   H10   S    
C291  H175  S    
C378  H383  S    
C214  C218  S    
C151  H47   S    
C179  C259  A    
C209  C229  S    
C300  H195  S    
C226  C230  S    
C361  H350  S    
C227  H79   S    
C170  C304  S    
C116  C120  A    
C87   C95   S    
C335  C336  S    
C276  H139  S    
C28   O64   S    
C147  C151  A    
C5    C9    A    
C346  H304  S    
C167  H55   S    
C194  C210  S    
C5    C261  A    
C138  C158  A    
C304  C305  S    
C286  H165  S    
C308  H219  S    
C8    C12   A    
C355  C356  S    
C341  C342  S    
C6    C262  A    
C114  C118  A    
C58   N2    S    
C369  H360  S    
C156  H52   S    
C42   C50   A    
C113  C117  A    
C339  H295  S    
C277  H147  S    
C47   O43   A    
C343  H298  S    
C51   C377  S    
C166  C170  A    
C327  H266  S    
C90   C242  S    
C216  H64   S    
C17   H65   S    
C370  H371  S    
C305  H211  S    
C116  C128  A    
C157  O9    S    
C280  H148  S    
C86   C102  S    
C93   C97   S    
C23   H91   S    
C371  C372  S    
C32   N4    A    
C337  H290  S    
C306  H210  S    
C360  H341  S    
C265  H117  S    
C105  C109  T    
C296  C297  S    
C47   O39   A    
C171  C307  S    
C18   C22   A    
C107  C111  T    
C359  H343  S    
C62   C78   S    
C251  O31   A    
C148  C152  A    
C5    C25   A    
C277  C278  S    
C15   C31   A    
C201  H73   S    
C16   C32   A    
C25   N1    A    
C80   C108  S    
C19   H67   S    
C151  C155  A    
C13   C17   A    
C206  C234  T    
C352  H320  S    
C219  C227  S    
C202  C218  S    
C284  H159  S    
C281  H156  S    
C61   C81   S    
C140  C160  A    
C266  H115  S    
C46   O42   A    
C6    C26   A    
C43   C47   S    
C358  H337  S    
C100  C279  S    
C96   C100  S    
C149  H45   S    
C73   C101  T    
C345  H307  S    
C30   O6    S    
C211  C239  S    
C368  H362  S    
C37   C41   A    
C373  C374  S    
C198  C210  S    
C303  H203  S    
C334  H278  S    
C131  C139  A    
C6    C10   A    
C139  C159  A    
C298  C299  S    
C196  H84   S    
C40   C44   A    
C313  H234  S    
C267  C268  S    
C200  C339  S    
C284  H160  S    
C283  H162  S    
C349  H311  S    
C169  C173  A    
C69   H21   S    
C96   H28   S    
C163  N7    A    
C294  H180  S    
C331  H275  S    
C81   C85   S    
C172  C176  A    
C217  C225  S    
C133  C173  S    
C76   C104  T    
C225  H77   S    
C88   C96   S    
C68   C80   S    
C355  H334  S    
C321  H245  S    
C350  C351  S    
C364  H357  S    
C378  H385  S    
C84   H36   S    
C97   C273  S    
C21   C253  A    
C314  C315  S    
C333  H281  S    
C69   C85   S    
C321  H243  S    
C332  H273  S    
C123  C155  A    
C277  H146  S    
C15   C19   A    
C177  C254  A    
C146  C162  A    
C287  C288  S    
C50   C54   A    
C121  C153  A    
C204  C220  S    
C13   C29   A    
C172  C310  S    
Cu3   O55   S    
C346  H306  S    
C2    O2    A    
C54   C58   A    
C281  C282  S    
C196  C216  S    
C9    C13   A    
Cu1   O53   S    
C94   C98   S    
C95   C99   S    
C360  H340  S    
C75   C103  T    
C366  H354  S    
C7    C27   A    
C220  C228  S    
C310  H227  S    
C290  C291  S    
C182  C186  A    
C41   C49   A    
C10   C14   A    
C134  O58   A    
Cu1   Cu5   S    
C12   C224  A    
C125  H41   S    
C1    C109  S    
C269  H126  S    
Cu3   Cu7   S    
C268  H120  S    
C127  H43   S    
C3    C111  S    
C375  C376  S    
C128  H44   S    
C230  C364  S    
C258  H2    S    
C165  C189  A    
C363  H345  S    
C91   O51   A    
C96   H40   S    
C199  H71   S    
C195  C215  S    
C228  H96   S    
C81   H33   S    
C130  C292  S    
C74   C102  T    
C295  H193  S    
C322  H255  S    
C62   C82   S    
C83   H35   S    
C302  H205  S    
C199  C203  S    
C64   C80   S    
Cu11  O27   S    
C63   C79   S    
C75   C251  S    
C264  C287  S    
C201  C341  S    
C270  H123  S    
C328  H263  S    
C278  H144  S    
C268  H119  S    
C227  H95   S    
C357  H338  S    
C66   C78   S    
C340  H294  S    
C246  O18   A    
C339  C340  S    
C159  N7    A    
C370  C371  S    
C216  C220  S    
C63   H31   S    
C348  C349  S    
C338  H288  S    
C205  C246  S    
C138  C142  A    
C29   O5    S    
C307  H220  S    
C344  C345  S    
C53   C57   A    
C266  H113  S    
C246  O22   A    
C282  H154  S    
C359  H344  S    
C36   C60   A    
C354  H325  S    
C265  C266  S    
C67   H11   S    
C33   C37   A    
C108  C112  T    
C115  C119  A    
C63   C83   S    
C68   C72   S    
C274  H135  S    
C202  C344  S    
C34   H98   S    
C35   C39   A    
C303  H201  S    
C347  C348  S    
Cu9   O24   S    
C215  C219  S    
C249  O25   A    
Cu10  O23   S    
C332  H272  S    
C24   H92   S    
C198  C335  S    
C333  H280  S    
C353  C354  S    
C79   C107  S    
C348  H314  S    
C200  C212  S    
C327  H265  S    
C185  C189  A    
C131  C295  S    
C1    O33   A    
C121  C122  A    
C198  H70   S    
C71   C87   S    
C330  H267  S    
Cu4   O40   S    
Cu7   O51   S    
C286  H164  S    
C353  H329  S    
C25   O61   S    
C68   H16   S    
C130  C138  A    
C42   C46   S    
C275  H141  S    
C290  H177  S    
C82   H110  S    
C347  H316  S    
C351  H322  S    
C185  H57   S    
C329  C330  S    
C324  H252  S    
Cu1   O37   S    
C293  C294  S    
C247  O19   A    
C313  C314  S    
C213  H85   S    
C187  H59   S    
C248  O20   A    
C137  C141  A    
C2    C110  S    
C279  C280  S    
C183  C319  S    
C199  C337  S    
C140  C144  A    
C99   C269  S    
C194  C214  S    
C193  C325  S    
Cu8   O44   S    
C38   C42   A    
C329  H270  S    
C337  H291  S    
C232  C359  S    
C137  C157  A    
C132  C140  A    
C60   N4    S    
C263  C285  S    
C301  H206  S    
C188  C192  A    
C329  H271  S    
C289  H178  S    
C356  H332  S    
C127  C131  A    
C77   C105  S    
C285  H166  S    
C273  H137  S    
C95   H39   S    
C82   C86   S    
C327  C328  S    
C320  H247  S    
C43   C51   A    
C115  C116  A    
C279  H151  S    
C293  H183  S    
C342  H301  S    
C4    O36   A    
C291  H173  S    
C163  O15   S    
C317  H239  S    
C349  H313  S    
C67   C71   S    
C299  H197  S    
C29   N1    A    
C376  H378  S    
C154  H50   S    
C161  O13   S    
C158  O10   S    
C371  H369  S    
C225  H93   S    
C337  C338  S    
Cu6   O50   S    
C92   O52   A    
C168  C172  A    
C298  H200  S    
C358  H336  S    
C271  C272  S    
C195  C329  S    
C310  C311  S    
C48   O44   A    
C165  H53   S    
C359  C360  S    
C350  H324  S    
C147  C163  A    
C90   O46   A    
C344  H309  S    
C180  C260  A    
C252  O28   A    
Cu5   O49   S    
Cu3   O3    S    
C84   H112  S    
C270  H125  S    
C145  C149  A    
C379  H391  S    
C336  H283  S    
C322  C323  S    
C62   H30   S    
C354  H326  S    
C340  H292  S    
C280  H149  S    
C377  C378  S    
C28   N4    A    
C26   N2    A    
C65   H13   S    
C316  H242  S    
C288  H169  S    
Cu7   O59   S    
C367  C368  S    
C14   C18   A    
C117  C141  A    
C304  H213  S    
C132  C298  S    
C273  H136  S    
C207  C248  S    
C63   H7    S    
C316  C317  S    
C274  H134  S    
C296  H191  S    
C202  H74   S    
C65   C69   S    
C7    C11   A    
C304  H214  S    
C312  H223  S    
C319  H249  S    
C3    O35   A    
C53   H105  S    
C261  C281  S    
C272  H128  S    
C37   H101  S    
C341  H303  S    
C265  H116  S    
C93   H25   S    
C291  H174  S    
C378  H384  S    
C352  H318  S    
C183  C187  A    
C311  H225  S    
C260  H4    S    
C271  H132  S    
C292  H186  S    
C232  C370  S    
C113  C125  A    
C267  H121  S    
C152  H48   S    
Cu2   O38   S    
Cu12  O28   S    
C115  C127  A    
C199  C211  S    
C376  H379  S    
C276  H138  S    
C192  N8    S    
C363  H347  S    
C205  C233  T    
C228  H80   S    
C9    C221  A    
C11   C223  A    
C331  C332  S    
C351  C352  S    
C117  C121  A    
C86   C94   S    
C366  H353  S    
C113  C114  A    
C120  C124  A    
C373  H376  S    
C162  N6    A    
C330  H269  S    
C380  H388  S    
Cu7   O43   S    
C78   C98   S    
C374  H374  S    
C92   O48   A    
C197  C201  S    
C83   H111  S    
C377  H386  S    
C194  H82   S    
C197  H69   S    
C187  C191  A    
C314  H232  S    
C252  O32   A    
C213  H61   S    
C27   N3    A    
C164  N8    A    
C300  H196  S    
C70   H18   S    
C4    C112  S    
C356  H331  S    
C287  H171  S    
C68   H12   S    
C80   C100  S    
C330  H268  S    
C122  C154  A    
C89   O49   A    
C342  H300  S    
C85   C93   S    
C155  H51   S    
C14   C30   A    
C204  C350  S    
C40   H104  S    
C72   H24   S    
C345  C346  S    
C74   C250  S    
C294  H181  S    
C45   O37   A    
C306  H209  S    
C210  C230  S    
C216  H88   S    
C350  H323  S    
C136  O60   A    
C315  H230  S    
C302  C303  S    
C148  C164  A    
C290  H176  S    
Cu4   Cu8   S    
C36   C40   A    
C49   C373  S    
Cu11  O32   S    
C218  C234  S    
C133  O53   A    
C339  H296  S    
Cu2   Cu6   S    
C269  C270  S    
C126  H42   S    
C213  C217  S    
Cu9   O30   S    
C150  H46   S    
C39   C43   A    
C375  H381  S    
C365  H355  S    
C160  N8    A    
C171  C175  A    
C201  C217  S    
C186  H58   S    
C184  C188  A    
C179  C223  A    
C352  H319  S    
C135  C175  S    
C325  H261  S    
C376  H380  S    
C306  H208  S    
C323  H253  S    
C200  C204  S    
C72   H20   S    
C195  C211  S    
C82   H34   S    
C193  C209  S    
C237  C241  T    
C380  H389  S    
C191  N7    S    
C4    O4    A    
C46   O38   A    
Cu12  O31   S    
C289  C290  S    
C326  H257  S    
C345  H308  S    
C368  H363  S    
C308  C309  S    
C283  C284  S    
C7    C263  A    
C303  H202  S    
C18   H66   S    
C371  H370  S    
C179  C256  A    
Cu11  Cu12  S    
C91   C243  S    
C335  H285  S    
C379  C380  S    
C64   H8    S    
C362  H348  S    
C124  C156  A    
Cu10  O20   S    
C150  C154  A    
C89   C241  S    
C251  O27   A    
C248  O24   A    
C56   H108  S    
C70   C86   S    
C331  H276  S    
C367  H365  S    
C288  H168  S    
C85   C101  S    
C106  C110  T    
C372  H368  S    
C62   H6    S    
C343  H297  S    
C321  H244  S    
C128  C132  A    
C33   C57   A    
C372  H366  S    
C272  H129  S    
C34   C38   A    
C220  C236  S    
C1    O1    A    
C30   N2    A    
Cu8   O60   S    
C249  O29   A    
C182  C316  S    
C136  O56   A    
C320  C321  S    
C250  O26   A    
C318  H237  S    
C3    O3    A    
C361  H351  S    
C238  C242  T    
Cu5   O41   S    
C203  C219  S    
C273  C274  S    
C215  H63   S    
C365  C366  S    
Cu11  O22   S    
C297  H188  S    
C208  C247  S    
C129  C289  S    
Cu6   O34   S    
C257  H1    S    
C135  O59   A    
C50   C375  S    
C374  H373  S    
C351  H321  S    
C308  H218  S    
C229  C361  S    
C275  C276  S    
Cu2   O46   S    
C69   H17   S    
C173  C181  A    
Cu9   O19   S    
C369  H361  S    
C229  C353  S    
C22   C254  A    
C197  C209  S    
C195  H83   S    
C223  C255  A    
C380  H390  S    
Cu3   O39   S    
C31   O7    S    
C66   H14   S    
C225  C229  S    
C342  C343  S    
C368  C369  S    
C161  N5    A    
C362  C363  S    
C178  C222  A    
C134  O54   A    
C362  H349  S    
C370  H372  S    
C212  C240  S    
C325  C326  S    
C284  H158  S    
C67   C79   S    
C190  N6    S    
C52   C56   A    
C317  C318  S    
C144  C148  A    
Cu9   Cu10  S    
